#
#   ____ _ ____         ___                   ____                   ___       _             __                
#  / ___(_)  _ \   _   / _ \ _ __   ___ _ __ / ___|  ___  ___  ___  |_ _|_ __ | |_ ___ _ __ / _| __ _  ___ ___ 
# | |  _| | | | |_| |_| | | | '_ \ / _ \ '_ \\___ \ / _ \/ _ \/ __|  | || '_ \| __/ _ \ '__| |_ / _` |/ __/ _ \
# | |_| | | |_| |_   _| |_| | |_) |  __/ | | |___) |  __/  __/\__ \  | || | | | ||  __/ |  |  _| (_| | (_|  __/
#  \____|_|____/  |_|  \___/| .__/ \___|_| |_|____/ \___|\___||___/ |___|_| |_|\__\___|_|  |_|  \__,_|\___\___|
#                           |_|                                                                                
#
# GiD + OpenSees Interface - An Integrated FEA Platform
# Copyright (C) 2016-2023
#
# Lab of R/C and Masonry Structures
# School of Civil Engineering, AUTh
#
# Development Team
#
# T. Kartalis-Kaounis, Dipl. Eng. AUTh, MSc
# V.K. Papanikolaou, Dipl. Eng., MSc DIC, PhD, Asst. Prof. AUTh
#
# Project Contributors
#
# F. Derveni, Dipl. Eng. AUTh, PhD
# G. Ntinolazos, Dipl. Eng. AUTh
# T. Papadopoulos, Dipl. Eng. AUTh, MSc
# V. Protopapadakis, Dipl. Eng. AUTh, MSc
# T. Zachariadis, Dipl. Eng. AUTh, MSc
#
# This program is free software: you can redistribute it and/or modify
# it under the terms of the GNU General Public License as published by
# the Free Software Foundation, either version 3 of the License, or
# (at your option) any later version.
#
# This program is distributed in the hope that it will be useful,
# but WITHOUT ANY WARRANTY; without even the implied warranty of
# MERCHANTABILITY or FITNESS FOR A PARTICULAR PURPOSE.  See the
# GNU General Public License for more details.
#
# You should have received a copy of the GNU General Public License
# along with this program.  If not, see <http://www.gnu.org/licenses/>.

# --------------------------------------------------------------------------------------------------------------
# U N I T S
# --------------------------------------------------------------------------------------------------------------

# Length : m
# Force  : kN
# Moment : kNm
# Stress : kPa
# Mass   : ton

# --------------------------------------------------------------------------------------------------------------
# M A T E R I A L S / S E C T I O N S ( E L E M E N T S )
# --------------------------------------------------------------------------------------------------------------

# Structural steel column (270)

# --------------------------------------------------------------------------------------------------------------
#
# M O D E L  D O M A I N  3DOF  (3)
#
# --------------------------------------------------------------------------------------------------------------

model BasicBuilder -ndm 3 -ndf 3

# --------------------------------------------------------------------------------------------------------------
# N O D E S
# --------------------------------------------------------------------------------------------------------------

# node $NodeTag $XCoord $Ycoord $Zcoord

node      1          0.6            6          0.8
node      2          0.6            6          0.7
node      3          0.4            6          0.8
node      4          0.6          5.8          0.8
node      5          0.6          5.8          0.7
node      6         0.35            6          0.7
node      7          0.4          5.8          0.8
node      8         0.35          5.8          0.7
node      9         0.25            6          0.7
node     10         0.35            6          0.5
node     11          0.2            6          0.8
node     12          0.6          5.6          0.8
node     13          0.6          5.6          0.7
node     14         0.25          5.8          0.7
node     15         0.35          5.8          0.5
node     16          0.2          5.8          0.8
node     17          0.4          5.6          0.8
node     18         0.25            6          0.5
node     19         0.35          5.6          0.7
node     20         0.25          5.8          0.5
# ... 600 like lines cut

# --------------------------------------------------------------------------------------------------------------
# R E S T R A I N T S
# --------------------------------------------------------------------------------------------------------------

# fix $NodeTag x-transl y-transl z-transl

fix      1   1   1   1
fix      2   1   1   1
fix      3   1   1   1
fix      6   1   1   1
fix      9   1   1   1
fix     10   1   1   1
fix     11   1   1   1
fix     18   1   1   1
fix     22   1   1   1
fix     26   1   1   1
fix     28   1   1   1
fix     30   1   1   1
fix     38   1   1   1
fix     46   1   1   1
fix     49   1   1   1
fix     50   1   1   1
fix     56   1   1   1
fix     68   1   1   1
fix     73   1   1   1
fix     81   1   1   1
# ... 20 like lines cut

# --------------------------------------------------------------------------------------------------------------
# S T A N D A R D   B R I C K   E L E M E N T S
# --------------------------------------------------------------------------------------------------------------

# nDMaterial Definition used by stdBrick Elements
# (if they have not already been defined on this model domain)

nDMaterial ElasticIsotropic 359 2e+08 0.3            0

# stdBrick element definition: element stdBrick $eleTag $node1 $node2 $node3 $node4 $node5 $node6 $node7 $node8 $matTag <$b1 $b2 $b3>

element stdBrick      1     28      9     11     26     34     14     16     32    359        0        0        0 ; # Steel
element stdBrick      2     34     14     16     32     44     21     24     41    359        0        0        0 ; # Steel
element stdBrick      3     44     21     24     41     63     39     42     62    359        0        0        0 ; # Steel
element stdBrick      4     63     39     42     62     86     66     70     84    359        0        0        0 ; # Steel
element stdBrick      5     86     66     70     84    108     94     98    107    359        0        0        0 ; # Steel
element stdBrick      6    108     94     98    107    129    118    120    128    359        0        0        0 ; # Steel
element stdBrick      7    129    118    120    128    150    141    143    149    359        0        0        0 ; # Steel
element stdBrick      8    150    141    143    149    170    162    164    169    359        0        0        0 ; # Steel
element stdBrick      9    170    162    164    169    191    183    185    190    359        0        0        0 ; # Steel
element stdBrick     10    191    183    185    190    211    204    206    210    359        0        0        0 ; # Steel
element stdBrick     11    211    204    206    210    231    224    226    230    359        0        0        0 ; # Steel
element stdBrick     12    231    224    226    230    251    245    247    250    359        0        0        0 ; # Steel
element stdBrick     13    251    245    247    250    271    265    267    270    359        0        0        0 ; # Steel
element stdBrick     14    271    265    267    270    291    285    287    290    359        0        0        0 ; # Steel
element stdBrick     15    291    285    287    290    311    305    307    310    359        0        0        0 ; # Steel
element stdBrick     16    311    305    307    310    331    325    327    330    359        0        0        0 ; # Steel
element stdBrick     17    331    325    327    330    351    345    347    350    359        0        0        0 ; # Steel
element stdBrick     18    351    345    347    350    371    365    367    370    359        0        0        0 ; # Steel
element stdBrick     19    371    365    367    370    391    385    387    390    359        0        0        0 ; # Steel
element stdBrick     20    391    385    387    390    411    405    407    410    359        0        0        0 ; # Steel
# ... 250 like lines cut

# --------------------------------------------------------------------------------------------------------------
#
# D O M A I N  C O M M O N S
#
# --------------------------------------------------------------------------------------------------------------

# --------------------------------------------------------------------------------------------------------------
# R E C O R D E R S
# --------------------------------------------------------------------------------------------------------------

recorder Node -file Node_displacements.out -time -nodeRange 1 620 -dof 1 2 3 disp
recorder Node -file Node_rotations.out -time -nodeRange 1 620 -dof 4 5 6 disp
recorder Node -file Node_forceReactions.out -time -nodeRange 1 620 -dof 1 2 3 reaction
recorder Node -file Node_momentReactions.out -time -nodeRange 1 620 -dof 4 5 6 reaction
recorder Element -file stdBrick_force.out -time -eleRange 1 270 forces
recorder Element -file stdBrick_stress.out -time -eleRange 1 270 stresses
recorder Element -file stdBrick_strain.out -time -eleRange 1 270 strains

logFile "Tutorial - Structural Steel Beam.log"

puts " __   __       __          __                   _       "
puts "/ _ .|  \\ _|_ /  \\ _  _ _ (_  _ _ _  | _ |_ _ _(_ _  _ _"
puts "\\__)||__/  |  \\__/|_)(-| )__)(-(-_)  || )|_(-| | (_|(_(-"
puts "                  |                                     "
puts "                             v3.0.0 with OpenSees v[version]\n"
puts "Analysis summary\n"
puts "Interval 1 : Static - [expr int(1+1)] steps"
puts "\n----------------\n"
set time_start [clock seconds]
puts "Starting analysis...\n"

# --------------------------------------------------------------------------------------------------------------
#
# I N T E R V A L   1
#
# --------------------------------------------------------------------------------------------------------------

puts "Running interval 1"

# Loads - Plain Pattern

pattern Plain 100 Linear {
    load    301        0        0      -10
}

# recording the initial status

record

# Analysis options

wipeAnalysis
system BandGeneral
numberer RCM
constraints Transformation
integrator LoadControl 1
algorithm Linear
analysis Static
set committedSteps 1
for {set i 1} { $i <= 1 } {incr i 1} {
    set AnalOk [analyze 1]
    if {$AnalOk !=0} {
        break
    } else {
        set committedSteps [expr $committedSteps+1]
    }
}
if {$AnalOk == 0} {
    puts "\nAnalysis completed SUCCESSFULLY"
    puts "Committed steps : $committedSteps\n"
} else {
    puts "\nAnalysis FAILED"
    puts "Committed steps : $committedSteps\n"
}

# --------------------------------------------------------------------------------------------------------------

set hour 0.0
set minute 0.0
set second 0.0
set time_end [clock seconds]
set analysisTime [expr $time_end-$time_start]

puts "Analysis finished.\n"

if {$analysisTime<60} {
    if {$analysisTime==0} {
        puts "Analysis time : less than one second"
    } elseif {$analysisTime==1} {
        puts "Analysis time : 1 second"
    } else {
        puts "Analysis time : $analysisTime seconds"
    }

}  elseif {$analysisTime<3600} {
    set minutes [expr $analysisTime/60]
    set seconds [expr $analysisTime%60]

    if {$minutes==1} {
        puts -nonewline "Analysis time : 1 minute"
    } else {
        puts -nonewline "Analysis time : $minutes minutes"
    }

    if {$seconds==0} {
        puts ""
    } elseif {$seconds==1} {
        puts " and 1 second"
    } else {
        puts " and $seconds seconds"
    }

} else  {
    set hours [expr $analysisTime/3600]
    set minutes [expr ($analysisTime%3600)/60]
    set seconds [expr ($analysisTime%3600)%60]

    if {$hours==1} {
        puts -nonewline "Analysis time : 1 hour"
    } else {
        puts -nonewline "Analysis time : $hours hours"
    }

    if {$minutes==0} {
    } elseif {$minute==1} {
        puts -nonewline ", 1 minute"
    } else {
        puts -nonewline ", $minutes minutes"
    }

    if {$seconds==0} {
        puts ""
    } elseif {$second==1} {
        puts " and 1 second"
    } else {
        puts " and $seconds seconds"
    }
}

# --------------------------------------------------------------------------------------------------------------
#
# M E T A D A T A
#
# --------------------------------------------------------------------------------------------------------------

# Number of nodes
# 620

# Elements 1D
# 0

# Elements 2D
# 0

# Elements 3D
# 270

# stdBrick
# 270
# 1 2 3 4 5 6 7 8 9 10 11 12 13 14 15 16 17 18 19 20 21 22 23 24 25 26 27 28 29 30 31 32 33 34 35 36 37 38 39 40 41 42 43 44 45 46 47 48 49 50 51 52 53 54 55 56 57 58 59 60 61 62 63 64 65 66 67 68 69 70 71 72 73 74 75 76 77 78 79 80 81 82 83 84 85 86 87 88 89 90 91 92 93 94 95 96 97 98 99 100 101 102 103 104 105 106 107 108 109 110 111 112 113 114 115 116 117 118 119 120 121 122 123 124 125 126 12
