#
#   ____ _ ____         ___                   ____                   ___       _             __                
#  / ___(_)  _ \   _   / _ \ _ __   ___ _ __ / ___|  ___  ___  ___  |_ _|_ __ | |_ ___ _ __ / _| __ _  ___ ___ 
# | |  _| | | | |_| |_| | | | '_ \ / _ \ '_ \\___ \ / _ \/ _ \/ __|  | || '_ \| __/ _ \ '__| |_ / _` |/ __/ _ \
# | |_| | | |_| |_   _| |_| | |_) |  __/ | | |___) |  __/  __/\__ \  | || | | | ||  __/ |  |  _| (_| | (_|  __/
#  \____|_|____/  |_|  \___/| .__/ \___|_| |_|____/ \___|\___||___/ |___|_| |_|\__\___|_|  |_|  \__,_|\___\___|
#                           |_|                                                                                
#
# GiD + OpenSees Interface - An Integrated FEA Platform
# Copyright (C) 2016-2023
#
# Lab of R/C and Masonry Structures
# School of Civil Engineering, AUTh
#
# Development Team
#
# T. Kartalis-Kaounis, Dipl. Eng. AUTh, MSc
# V.K. Papanikolaou, Dipl. Eng., MSc DIC, PhD, Asst. Prof. AUTh
#
# Project Contributors
#
# F. Derveni, Dipl. Eng. AUTh, PhD
# G. Ntinolazos, Dipl. Eng. AUTh
# T. Papadopoulos, Dipl. Eng. AUTh, MSc
# V. Protopapadakis, Dipl. Eng. AUTh, MSc
# T. Zachariadis, Dipl. Eng. AUTh, MSc
#
# This program is free software: you can redistribute it and/or modify
# it under the terms of the GNU General Public License as published by
# the Free Software Foundation, either version 3 of the License, or
# (at your option) any later version.
#
# This program is distributed in the hope that it will be useful,
# but WITHOUT ANY WARRANTY; without even the implied warranty of
# MERCHANTABILITY or FITNESS FOR A PARTICULAR PURPOSE.  See the
# GNU General Public License for more details.
#
# You should have received a copy of the GNU General Public License
# along with this program.  If not, see <http://www.gnu.org/licenses/>.

# --------------------------------------------------------------------------------------------------------------
# U N I T S
# --------------------------------------------------------------------------------------------------------------

# Length : m
# Force  : kN
# Moment : kNm
# Stress : kPa
# Mass   : ton

# --------------------------------------------------------------------------------------------------------------
# M A T E R I A L S / S E C T I O N S ( E L E M E N T S )
# --------------------------------------------------------------------------------------------------------------

# Concrete (114)
# Soil (176)

# --------------------------------------------------------------------------------------------------------------
#
# M O D E L  D O M A I N  3DOF  (3)
#
# --------------------------------------------------------------------------------------------------------------

model BasicBuilder -ndm 3 -ndf 3

# --------------------------------------------------------------------------------------------------------------
# N O D E S
# --------------------------------------------------------------------------------------------------------------

# node $NodeTag $XCoord $Ycoord $Zcoord

node      1           -5           21           -5
node      2         -2.5           21           -5
node      3           -5           21         -2.5
node      4           -5         18.5           -5
node      5           -5         18.5         -2.5
node      6         -2.5           21         -2.5
node      7         -2.5         18.5           -5
node      8         -2.5         18.5         -2.5
node      9           -5           16           -5
node     10            0           21           -5
node     11           -5           21            0
node     12           -5           16         -2.5
node     13            0         18.5           -5
node     14         -2.5           21            0
node     15         -2.5           16           -5
node     16           -5         18.5            0
node     17            0           21         -2.5
node     18         -2.5           16         -2.5
node     19            0         18.5         -2.5
node     20         -2.5         18.5            0
# ... 732 like lines cut

# --------------------------------------------------------------------------------------------------------------
# R E S T R A I N T S
# --------------------------------------------------------------------------------------------------------------

# fix $NodeTag x-transl y-transl z-transl

fix      1   0   1   0
fix      2   0   1   0
fix      3   0   1   0
fix      4   0   0   1
fix      5   1   0   0
fix      6   0   1   0
fix      7   0   0   1
fix      9   0   0   1
fix     10   0   1   0
fix     11   0   1   0
fix     12   1   0   0
fix     13   0   0   1
fix     14   0   1   0
fix     15   0   0   1
fix     16   1   0   0
fix     17   0   1   0
fix     21   0   1   0
fix     22   1   0   0
fix     23   0   0   1
fix     24   1   0   0
# ... 164 like lines cut

# --------------------------------------------------------------------------------------------------------------
# S T A N D A R D   B R I C K   E L E M E N T S
# --------------------------------------------------------------------------------------------------------------

# nDMaterial Definition used by stdBrick Elements
# (if they have not already been defined on this model domain)

nDMaterial ElasticIsotropic 359 3.1e+07 0.2            0
nDMaterial ElasticIsotropic 360 170000 0.25            0

# stdBrick element definition: element stdBrick $eleTag $node1 $node2 $node3 $node4 $node5 $node6 $node7 $node8 $matTag <$b1 $b2 $b3>

element stdBrick      1    536    527    519    524    556    548    541    545    359        0        0        0 ; # Concrete C25/30
element stdBrick      2    544    540    527    536    568    563    548    556    359        0        0        0 ; # Concrete C25/30
element stdBrick      3    560    551    540    544    576    572    563    568    359        0        0        0 ; # Concrete C25/30
element stdBrick      4    570    566    551    560    589    583    572    576    359        0        0        0 ; # Concrete C25/30
element stdBrick      5    582    577    566    570    602    596    583    589    359        0        0        0 ; # Concrete C25/30
element stdBrick      6    586    580    577    582    606    600    596    602    359        0        0        0 ; # Concrete C25/30
element stdBrick      7    644    632    621    633    665    652    642    656    359        0        0        0 ; # Concrete C25/30
element stdBrick      8    655    641    632    644    680    662    652    665    359        0        0        0 ; # Concrete C25/30
element stdBrick      9    670    654    641    655    689    679    662    680    359        0        0        0 ; # Concrete C25/30
element stdBrick     10    683    671    654    670    698    690    679    689    359        0        0        0 ; # Concrete C25/30
element stdBrick     11    694    684    671    683    702    699    690    698    359        0        0        0 ; # Concrete C25/30
element stdBrick     12    697    688    684    694    703    701    699    702    359        0        0        0 ; # Concrete C25/30
element stdBrick     13    595    613    606    586    592    609    602    582    359        0        0        0 ; # Concrete C25/30
element stdBrick     14    605    624    613    595    601    617    609    592    359        0        0        0 ; # Concrete C25/30
element stdBrick     15    614    635    624    605    610    631    617    601    359        0        0        0 ; # Concrete C25/30
element stdBrick     16    627    649    635    614    622    643    631    610    359        0        0        0 ; # Concrete C25/30
element stdBrick     17    639    661    649    627    634    658    643    622    359        0        0        0 ; # Concrete C25/30
element stdBrick     18    657    681    661    639    651    677    658    634    359        0        0        0 ; # Concrete C25/30
element stdBrick     19    676    693    681    657    669    687    677    651    359        0        0        0 ; # Concrete C25/30
element stdBrick     20    688    701    693    676    684    699    687    669    359        0        0        0 ; # Concrete C25/30
# ... 76 like lines cut
element stdBrick     97    467    488    497    483    538    565    578    557    360        0        0        0 ; # Soil Material
element stdBrick     98    456    482    488    467    530    554    565    538    360        0        0        0 ; # Soil Material
element stdBrick     99    552    597    616    573    630    682    696    650    360        0        0        0 ; # Soil Material
element stdBrick    100    546    594    597    552    623    678    682    630    360        0        0        0 ; # Soil Material
element stdBrick    101    131    164    194    155    212    256    284    244    360        0        0        0 ; # Soil Material
element stdBrick    102    120    152    164    131    200    242    256    212    360        0        0        0 ; # Soil Material
element stdBrick    103    285    352    378    314    356    433    463    384    360        0        0        0 ; # Soil Material
element stdBrick    104    274    342    352    285    348    423    433    356    360        0        0        0 ; # Soil Material
element stdBrick    105     30     41     56     39     40     62     82     55    360        0        0        0 ; # Soil Material
element stdBrick    106     23     37     41     30     35     53     62     40    360        0        0        0 ; # Soil Material
element stdBrick    107    107    168    197    124    133    206    239    158    360        0        0        0 ; # Soil Material
element stdBrick    108    102    154    168    107    123    195    206    133    360        0        0        0 ; # Soil Material
element stdBrick    109    331    212    244    355    364    256    284    395    360        0        0        0 ; # Soil Material
element stdBrick    110    467    331    355    483    488    364    395    497    360        0        0        0 ; # Soil Material
element stdBrick    111    324    200    212    331    353    242    256    364    360        0        0        0 ; # Soil Material
element stdBrick    112    456    324    331    467    482    353    364    488    360        0        0        0 ; # Soil Material
element stdBrick    113     81     40     55     96    100     62     82    116    360        0        0        0 ; # Soil Material
element stdBrick    114    131     81     96    155    164    100    116    194    360        0        0        0 ; # Soil Material
element stdBrick    115     74     35     40     81     95     53     62    100    360        0        0        0 ; # Soil Material
element stdBrick    116    120     74     81    131    152     95    100    164    360        0        0        0 ; # Soil Material
# ... 156 like lines cut
element stdBrick    273    510    494    483    497    569    550    557    578    359        0        0        0 ; # Concrete C25/30
element stdBrick    274    517    504    494    510    559    543    550    569    359        0        0        0 ; # Concrete C25/30
element stdBrick    275    524    519    504    517    545    541    543    559    359        0        0        0 ; # Concrete C25/30
element stdBrick    276    203    176    155    194    273    241    244    284    359        0        0        0 ; # Concrete C25/30
element stdBrick    277    215    189    176    203    262    238    241    273    359        0        0        0 ; # Concrete C25/30
element stdBrick    278    222    214    189    215    249    234    238    262    359        0        0        0 ; # Concrete C25/30
element stdBrick    279     58     45     39     56     77     57     55     82    359        0        0        0 ; # Concrete C25/30
element stdBrick    280     59     49     45     58     73     60     57     77    359        0        0        0 ; # Concrete C25/30
element stdBrick    281     64     54     49     59     68     63     60     73    359        0        0        0 ; # Concrete C25/30
element stdBrick    282    192    141    124    197    226    165    158    239    359        0        0        0 ; # Concrete C25/30
element stdBrick    283    188    150    141    192    216    174    165    226    359        0        0        0 ; # Concrete C25/30
element stdBrick    284    187    172    150    188    201    180    174    216    359        0        0        0 ; # Concrete C25/30
element stdBrick    285    382    334    314    378    449    388    384    463    359        0        0        0 ; # Concrete C25/30
element stdBrick    286    387    349    334    382    432    390    388    449    359        0        0        0 ; # Concrete C25/30
element stdBrick    287    391    372    349    387    413    394    390    432    359        0        0        0 ; # Concrete C25/30
element stdBrick    288    620    587    573    616    685    648    650    696    359        0        0        0 ; # Concrete C25/30
element stdBrick    289    628    604    587    620    672    645    648    685    359        0        0        0 ; # Concrete C25/30
element stdBrick    290    633    621    604    628    656    642    645    672    359        0        0        0 ; # Concrete C25/30

# --------------------------------------------------------------------------------------------------------------
#
# D O M A I N  C O M M O N S
#
# --------------------------------------------------------------------------------------------------------------

# --------------------------------------------------------------------------------------------------------------
# R E C O R D E R S
# --------------------------------------------------------------------------------------------------------------

recorder Node -file Node_displacements.out -time -nodeRange 1 752 -dof 1 2 3 disp
recorder Node -file Node_rotations.out -time -nodeRange 1 752 -dof 4 5 6 disp
recorder Node -file Node_forceReactions.out -time -nodeRange 1 752 -dof 1 2 3 reaction
recorder Node -file Node_momentReactions.out -time -nodeRange 1 752 -dof 4 5 6 reaction
recorder Element -file stdBrick_force.out -time -eleRange 1 290 forces
recorder Element -file stdBrick_stress.out -time -eleRange 1 290 stresses
recorder Element -file stdBrick_strain.out -time -eleRange 1 290 strains

logFile "Tutorial - Structure with Foundation on Soil.log"

puts " __   __       __          __                   _       "
puts "/ _ .|  \\ _|_ /  \\ _  _ _ (_  _ _ _  | _ |_ _ _(_ _  _ _"
puts "\\__)||__/  |  \\__/|_)(-| )__)(-(-_)  || )|_(-| | (_|(_(-"
puts "                  |                                     "
puts "                             v3.0.0 with OpenSees v[version]\n"
puts "Analysis summary\n"
puts "Interval 1 : Static - [expr int(1+1)] steps"
puts "\n----------------\n"
set time_start [clock seconds]
puts "Starting analysis...\n"

# --------------------------------------------------------------------------------------------------------------
#
# I N T E R V A L   1
#
# --------------------------------------------------------------------------------------------------------------

puts "Running interval 1"

# Loads - Plain Pattern

pattern Plain 100 Linear {
    load    113       25       15        0
    load    117       25       15        0
    load    118       25       15        0
    load    128       25       15        0
    load    280       25       15        0
    load    289       25       15        0
    load    298       25       15        0
    load    306       25       15        0
    load    316       25       15        0
    load    322       25       15        0
    load    332       25       15        0
    load    338       25       15        0
    load    472       25       15        0
    load    479       25       15        0
    load    480       25       15        0
    load    492       25       15        0
    load    580       25       15        0
    load    586       25       15        0
    load    600       25       15        0
    load    606       25       15        0
# ... 4 like lines cut
}

# recording the initial status

record

# Analysis options

wipeAnalysis
system BandGeneral
numberer RCM
constraints Transformation
integrator LoadControl 1
algorithm Linear
analysis Static
set committedSteps 1
for {set i 1} { $i <= 1 } {incr i 1} {
    set AnalOk [analyze 1]
    if {$AnalOk !=0} {
        break
    } else {
        set committedSteps [expr $committedSteps+1]
    }
}
if {$AnalOk == 0} {
    puts "\nAnalysis completed SUCCESSFULLY"
    puts "Committed steps : $committedSteps\n"
} else {
    puts "\nAnalysis FAILED"
    puts "Committed steps : $committedSteps\n"
}

# --------------------------------------------------------------------------------------------------------------

set hour 0.0
set minute 0.0
set second 0.0
set time_end [clock seconds]
set analysisTime [expr $time_end-$time_start]

puts "Analysis finished.\n"

if {$analysisTime<60} {
    if {$analysisTime==0} {
        puts "Analysis time : less than one second"
    } elseif {$analysisTime==1} {
        puts "Analysis time : 1 second"
    } else {
        puts "Analysis time : $analysisTime seconds"
    }

}  elseif {$analysisTime<3600} {
    set minutes [expr $analysisTime/60]
    set seconds [expr $analysisTime%60]

    if {$minutes==1} {
        puts -nonewline "Analysis time : 1 minute"
    } else {
        puts -nonewline "Analysis time : $minutes minutes"
    }

    if {$seconds==0} {
        puts ""
    } elseif {$seconds==1} {
        puts " and 1 second"
    } else {
        puts " and $seconds seconds"
    }

} else  {
    set hours [expr $analysisTime/3600]
    set minutes [expr ($analysisTime%3600)/60]
    set seconds [expr ($analysisTime%3600)%60]

    if {$hours==1} {
        puts -nonewline "Analysis time : 1 hour"
    } else {
        puts -nonewline "Analysis time : $hours hours"
    }

    if {$minutes==0} {
    } elseif {$minute==1} {
        puts -nonewline ", 1 minute"
    } else {
        puts -nonewline ", $minutes minutes"
    }

    if {$seconds==0} {
        puts ""
    } elseif {$second==1} {
        puts " and 1 second"
    } else {
        puts " and $seconds seconds"
    }
}

# --------------------------------------------------------------------------------------------------------------
#
# M E T A D A T A
#
# --------------------------------------------------------------------------------------------------------------

# Number of nodes
# 752

# Elements 1D
# 0

# Elements 2D
# 0

# Elements 3D
# 290

# stdBrick
# 290
# 1 2 3 4 5 6 7 8 9 10 11 12 13 14 15 16 17 18 19 20 21 22 23 24 25 26 27 28 29 30 31 32 33 34 35 36 37 38 39 40 41 42 43 44 45 46 47 48 49 50 51 52 53 54 55 56 57 58 59 60 61 62 63 64 65 66 67 68 69 70 71 72 73 74 75 76 77 78 79 80 81 82 83 84 85 86 87 88 89 90 91 92 93 94 95 96 97 98 99 100 101 102 103 104 105 106 107 108 109 110 111 112 113 114 115 116 117 118 119 120 121 122 123 124 125 126 12
