#
#   ____ _ ____         ___                   ____                   ___       _             __                
#  / ___(_)  _ \   _   / _ \ _ __   ___ _ __ / ___|  ___  ___  ___  |_ _|_ __ | |_ ___ _ __ / _| __ _  ___ ___ 
# | |  _| | | | |_| |_| | | | '_ \ / _ \ '_ \\___ \ / _ \/ _ \/ __|  | || '_ \| __/ _ \ '__| |_ / _` |/ __/ _ \
# | |_| | | |_| |_   _| |_| | |_) |  __/ | | |___) |  __/  __/\__ \  | || | | | ||  __/ |  |  _| (_| | (_|  __/
#  \____|_|____/  |_|  \___/| .__/ \___|_| |_|____/ \___|\___||___/ |___|_| |_|\__\___|_|  |_|  \__,_|\___\___|
#                           |_|                                                                                
#
# GiD + OpenSees Interface - An Integrated FEA Platform
# Copyright (C) 2016-2023
#
# Lab of R/C and Masonry Structures
# School of Civil Engineering, AUTh
#
# Development Team
#
# T. Kartalis-Kaounis, Dipl. Eng. AUTh, MSc
# V.K. Papanikolaou, Dipl. Eng., MSc DIC, PhD, Asst. Prof. AUTh
#
# Project Contributors
#
# F. Derveni, Dipl. Eng. AUTh, PhD
# G. Ntinolazos, Dipl. Eng. AUTh
# T. Papadopoulos, Dipl. Eng. AUTh, MSc
# V. Protopapadakis, Dipl. Eng. AUTh, MSc
# T. Zachariadis, Dipl. Eng. AUTh, MSc
#
# This program is free software: you can redistribute it and/or modify
# it under the terms of the GNU General Public License as published by
# the Free Software Foundation, either version 3 of the License, or
# (at your option) any later version.
#
# This program is distributed in the hope that it will be useful,
# but WITHOUT ANY WARRANTY; without even the implied warranty of
# MERCHANTABILITY or FITNESS FOR A PARTICULAR PURPOSE.  See the
# GNU General Public License for more details.
#
# You should have received a copy of the GNU General Public License
# along with this program.  If not, see <http://www.gnu.org/licenses/>.

# --------------------------------------------------------------------------------------------------------------
# U N I T S
# --------------------------------------------------------------------------------------------------------------

# Length : m
# Force  : kN
# Moment : kNm
# Stress : kPa
# Mass   : ton

# --------------------------------------------------------------------------------------------------------------
# M A T E R I A L S / S E C T I O N S ( E L E M E N T S )
# --------------------------------------------------------------------------------------------------------------

# Column (140)
# Beam (105)

# --------------------------------------------------------------------------------------------------------------
#
# M O D E L  D O M A I N  3DOF  (3)
#
# --------------------------------------------------------------------------------------------------------------

model BasicBuilder -ndm 2 -ndf 3

# --------------------------------------------------------------------------------------------------------------
# N O D E S
# --------------------------------------------------------------------------------------------------------------

# node $NodeTag $XCoord $Ycoord

node      1           10            0
node      2           10          0.6
node      3           10          1.2
node      4           10          1.8
node      5           10          2.4
node      6           10            3
node      7          9.2            3
node      8          8.4            3
node      9           10          3.6
node     10          7.6            3
node     11            6            0
node     12            6          0.6
node     13            6          1.2
node     14           10          4.2
node     15            6          1.8
node     16          6.8            3
node     17            6          2.4
node     18           10          4.8
node     19            6            3
node     20            6          3.6
# ... 208 like lines cut

# --------------------------------------------------------------------------------------------------------------
# R E S T R A I N T S
# --------------------------------------------------------------------------------------------------------------

# fix $NodeTag x-transl y-transl z-rot

fix      1   1   1   1
fix     11   1   1   1
fix     40   1   1   1
fix     86   1   1   1

# --------------------------------------------------------------------------------------------------------------
# F O R C E - B A S E D   B E A M - C O L U M N   E L E M E N T S
# --------------------------------------------------------------------------------------------------------------

# Geometric Transformation

geomTransf Linear 1
geomTransf PDelta 2
geomTransf Corotational 3

# Sections Definition used by forceBeamColumn Elements
# (if they have not already been defined on this model domain)

uniaxialMaterial Concrete01 316 -16000 -0.002 -14000 -0.005
uniaxialMaterial Steel01 311 500000 2e+08 0.15 0 1 0 1


section Fiber 359 -GJ 1e10  {

# Create the Core fibers

patch rect 316      8      8  -0.250000  -0.250000   0.250000   0.250000

# Create the Cover fibers

patch rect 316      8      1  -0.250000   0.250000   0.250000   0.300000
patch rect 316      8      1  -0.250000  -0.300000   0.250000  -0.250000
patch rect 316      1      8  -0.300000  -0.250000  -0.250000   0.250000
patch rect 316      1      8   0.250000  -0.250000   0.300000   0.250000
# Corner Cover fibers
patch rect 316      1      1  -0.300000  -0.300000  -0.250000  -0.250000
patch rect 316      1      1  -0.300000   0.250000  -0.250000   0.300000
patch rect 316      1      1   0.250000  -0.300000   0.300000  -0.250000
patch rect 316      1      1   0.250000   0.250000   0.300000   0.300000


# Create the corner bars

layer straight 311  2   0.00005027   0.250000   0.250000  -0.250000   0.250000
layer straight 311  2   0.00005027   0.250000  -0.250000  -0.250000  -0.250000

# Create the middle bars along local y axis

layer straight 311   2   0.00005027   0.083333   0.250000  -0.083333   0.250000
layer straight 311   2   0.00005027   0.083333  -0.250000  -0.083333  -0.250000

# Create the middle bars along local z axis

layer straight 311   2   0.00005027   0.250000   0.083333   0.250000  -0.083333
layer straight 311   2   0.00005027  -0.250000   0.083333  -0.250000  -0.083333
}


section Fiber 360 {

# Create the Core fibers

patch rect 316     10      4  -0.300000  -0.100000   0.300000   0.100000

# Create the Cover fibers

patch rect 316     10      1  -0.300000   0.100000   0.300000   0.150000
patch rect 316     10      1  -0.300000  -0.150000   0.300000  -0.100000
patch rect 316      2      4  -0.350000  -0.100000  -0.300000   0.100000
patch rect 316      2      4   0.300000  -0.100000   0.350000   0.100000
# Corner Cover fibers
patch rect 316      2      1  -0.350000  -0.150000  -0.300000  -0.100000
patch rect 316      2      1  -0.350000   0.100000  -0.300000   0.150000
patch rect 316      2      1   0.300000  -0.150000   0.350000  -0.100000
patch rect 316      2      1   0.300000   0.100000   0.350000   0.150000


# Create the Top bars (face on local y positive dir)

layer straight 311   3    0.00020110   0.300000   0.100000   0.300000  -0.100000

# Create the Bottom bars (face on local y negative dir)

layer straight 311   3   0.00020110  -0.300000   0.100000  -0.300000  -0.100000
}

# Force-Based Beam-Column Element definition

# element forceBeamColumn $eleTag $iNode $jNode $numIntgrPts $secTag $transfTag

element forceBeamColumn      1     86     88  3    359  1   -iter   10   1.00e-11   -mass        0
element forceBeamColumn      2     88     91  3    359  1   -iter   10   1.00e-11   -mass        0
element forceBeamColumn      3     91     94  3    359  1   -iter   10   1.00e-11   -mass        0
element forceBeamColumn      4     94     95  3    359  1   -iter   10   1.00e-11   -mass        0
element forceBeamColumn      5     95     97  3    359  1   -iter   10   1.00e-11   -mass        0
element forceBeamColumn      6     97     83  3    360  1   -iter   10   1.00e-11   -mass        0
element forceBeamColumn      7     83     75  3    360  1   -iter   10   1.00e-11   -mass        0
element forceBeamColumn      8     75     66  3    360  1   -iter   10   1.00e-11   -mass        0
element forceBeamColumn      9     66     56  3    360  1   -iter   10   1.00e-11   -mass        0
element forceBeamColumn     10     56     48  3    360  1   -iter   10   1.00e-11   -mass        0
element forceBeamColumn     11     40     41  3    359  1   -iter   10   1.00e-11   -mass        0
element forceBeamColumn     12     41     42  3    359  1   -iter   10   1.00e-11   -mass        0
element forceBeamColumn     13     42     43  3    359  1   -iter   10   1.00e-11   -mass        0
element forceBeamColumn     14     43     46  3    359  1   -iter   10   1.00e-11   -mass        0
element forceBeamColumn     15     46     48  3    359  1   -iter   10   1.00e-11   -mass        0
element forceBeamColumn     16     48     39  3    360  1   -iter   10   1.00e-11   -mass        0
element forceBeamColumn     17     39     33  3    360  1   -iter   10   1.00e-11   -mass        0
element forceBeamColumn     18     33     28  3    360  1   -iter   10   1.00e-11   -mass        0
element forceBeamColumn     19     28     22  3    360  1   -iter   10   1.00e-11   -mass        0
element forceBeamColumn     20     22     19  3    360  1   -iter   10   1.00e-11   -mass        0
# ... 225 like lines cut

# --------------------------------------------------------------------------------------------------------------
#
# D O M A I N  C O M M O N S
#
# --------------------------------------------------------------------------------------------------------------

# --------------------------------------------------------------------------------------------------------------
# R E C O R D E R S
# --------------------------------------------------------------------------------------------------------------

recorder Node -file Node_displacements.out -time -nodeRange 1 228 -dof 1 2 disp
recorder Node -file Node_rotations.out -time -nodeRange 1 228 -dof 3 disp
recorder Node -file Node_forceReactions.out -time -nodeRange 1 228 -dof 1 2 reaction
recorder Node -file Node_momentReactions.out -time -nodeRange 1 228 -dof 3 reaction
recorder Element -file ForceBeamColumn_localForce.out -time -ele 1 2 3 4 5 6 7 8 9 10 11 12 13 14 15 16 17 18 19 20 21 22 23 24 25 26 27 28 29 30 31 32 33 34 35 36 37 38 39 40 41 42 43 44 45 46 47 48 49 50 51 52 53 54 55 56 57 58 59 60 61 62 63 64 65 66 67 68 69 70 71 72 73 74 75 76 77 78 79 80 81 82 83 84 85 86 87 88 89 90 91 92 93 94 95 96 97 98 99 100 101 102 103 104 105 106 107 108 109 110 111
recorder Element -file ForceBeamColumn_basicDeformation.out -time -ele 1 2 3 4 5 6 7 8 9 10 11 12 13 14 15 16 17 18 19 20 21 22 23 24 25 26 27 28 29 30 31 32 33 34 35 36 37 38 39 40 41 42 43 44 45 46 47 48 49 50 51 52 53 54 55 56 57 58 59 60 61 62 63 64 65 66 67 68 69 70 71 72 73 74 75 76 77 78 79 80 81 82 83 84 85 86 87 88 89 90 91 92 93 94 95 96 97 98 99 100 101 102 103 104 105 106 107 108 109 1
recorder Element -file ForceBeamColumn_plasticDeformation.out -time -ele 1 2 3 4 5 6 7 8 9 10 11 12 13 14 15 16 17 18 19 20 21 22 23 24 25 26 27 28 29 30 31 32 33 34 35 36 37 38 39 40 41 42 43 44 45 46 47 48 49 50 51 52 53 54 55 56 57 58 59 60 61 62 63 64 65 66 67 68 69 70 71 72 73 74 75 76 77 78 79 80 81 82 83 84 85 86 87 88 89 90 91 92 93 94 95 96 97 98 99 100 101 102 103 104 105 106 107 108 109

logFile "Example - Plane Frame - Pushover Analysis.log"

puts " __   __       __          __                   _       "
puts "/ _ .|  \\ _|_ /  \\ _  _ _ (_  _ _ _  | _ |_ _ _(_ _  _ _"
puts "\\__)||__/  |  \\__/|_)(-| )__)(-(-_)  || )|_(-| | (_|(_(-"
puts "                  |                                     "
puts "                             v2.9.6 with OpenSees v[version]\n"
puts "Analysis summary\n"
puts "Interval 1 : Static - [expr int(1+10)] steps"
puts "Interval 2 : Static - [expr int(1+100)] steps"
puts "\n----------------\n"
set time_start [clock seconds]
puts "Starting analysis...\n"

# --------------------------------------------------------------------------------------------------------------
#
# I N T E R V A L   1
#
# --------------------------------------------------------------------------------------------------------------

puts "Running interval 1"

# Loads - Plain Pattern

pattern Plain 100 Linear {
    load      6        0     -200        0
    load     19        0     -200        0
    load     24        0     -200        0
    load     35        0     -200        0
    load     48        0     -200        0
    load     52        0     -200        0
    load     64        0     -200        0
    load     65        0     -200        0
    load     85        0     -200        0
    load     90        0     -200        0
    load     97        0     -200        0
    load    103        0     -200        0
    load    114        0     -200        0
    load    128        0     -200        0
    load    133        0     -200        0
    load    134        0     -200        0
    load    142        0     -200        0
    load    159        0     -200        0
    load    160        0     -200        0
    load    169        0     -200        0
# ... 8 like lines cut
}

# recording the initial status

record

# Analysis options

wipeAnalysis
system BandGeneral
numberer RCM
constraints Transformation
integrator LoadControl 0.1
test NormDispIncr 0.0001 50 2
algorithm Newton
analysis Static

set Lincr 0.100000
set Nsteps 10
set committedSteps 1
set LoadCounter 0

set strIni {}
variable testTypeStatic NormDispIncr
variable TolStatic 0.0001
variable maxNumIterStatic 50
variable algorithmTypeStatic Newton

for {set i 1} { $i <= $Nsteps } {incr i 1} {
    set t [format "%7.5f" [expr [getTime] + $Lincr]]
    puts -nonewline "(1) $algorithmTypeStatic$strIni LF $t "
    set AnalOk [analyze 1]
    if {$AnalOk !=0} {
        break
    } else {
        set LoadCounter [expr $LoadCounter+1.0]
        set committedSteps [expr $committedSteps+1]
    }
}

if {$AnalOk != 0} {; # if analysis fails, alternative algorithms and substepping is applied
    set firstFail 1
    set AnalOk 0
    set Nk 1
    set returnToInitStepFlag 0
    while {$LoadCounter < $Nsteps && $AnalOk == 0} {
        if {($Nk==2 && $AnalOk==0) || ($Nk==1 && $AnalOk==0)} {
            set Nk 1
            if {$returnToInitStepFlag} {
                puts "\nBack to initial step\n"
                set returnToInitStepFlag 0
            }
            if {$firstFail == 0} { # for the first time only, do not repeat previous failed step
                integrator LoadControl $Lincr; # reset to original increment
                set t [format "%7.5f" [expr [getTime] + $Lincr]]
                puts -nonewline "(1) $algorithmTypeStatic$strIni LF $t "
                set AnalOk [analyze 1]; # zero for convergence
            } else {
                set AnalOk 1
                set firstFail 0
            }
            if {$AnalOk == 0} {
                set LoadCounter [expr $LoadCounter+1.0/$Nk]
                set committedSteps [expr $committedSteps+1]
            }
        }; # end if Nk=1
        # substepping /2
        if {($AnalOk !=0 && $Nk==1) || ($AnalOk==0 && $Nk==4)} {
            set Nk 2; # reduce step size
            set continueFlag 1
            puts "\nInitial step is divided by 2\n"
            set LincrReduced [expr $Lincr/$Nk]
            integrator LoadControl $LincrReduced
            for {set ik 1} {$ik <=$Nk} {incr ik 1} {
                if {$continueFlag==0} {
                    break
                }
                set t [format "%7.5f" [expr [getTime] + $LincrReduced]]
                puts -nonewline "(1) $algorithmTypeStatic$strIni LF $t "
                set AnalOk [analyze 1]; # zero for convergence
                if {$AnalOk == 0} {
                    set LoadCounter [expr $LoadCounter+1.0/$Nk]
                    set committedSteps [expr $committedSteps+1]
                } else {
                    set continueFlag 0
                }
            }
            if {$AnalOk == 0} {
                set returnToInitStepFlag 1
            }
        }; # end if Nk=2
        # substepping /4
        if {($AnalOk !=0 && $Nk==2) || ($AnalOk==0 && $Nk==8)} {
            set Nk 4; # reduce step size
            set continueFlag 1
            puts "\nInitial step is divided by 4\n"
            set LincrReduced [expr $Lincr/$Nk]
            integrator LoadControl $LincrReduced
            for {set ik 1} {$ik <=$Nk} {incr ik 1} {
                if {$continueFlag==0} {
                    break
                }
                set t [format "%7.5f" [expr [getTime] + $LincrReduced]]
                puts -nonewline "(1) $algorithmTypeStatic$strIni LF $t "
                set AnalOk [analyze 1]; # zero for convergence
                if {$AnalOk == 0} {
                    set LoadCounter [expr $LoadCounter+1.0/$Nk]
                    set committedSteps [expr $committedSteps+1]
                } else {
                    set continueFlag 0
                }
            }
            if {$AnalOk == 0} {
                set returnToInitStepFlag 1
            }
        }; # end if Nk=4
        # substepping /8
        if {$AnalOk !=0 && $Nk==4 || ($Nk == 16 && $AnalOk == 0)} {
            set Nk 8; # reduce step size
            set continueFlag 1
            puts "\nInitial step is divided by 8\n"
            set LincrReduced [expr $Lincr/$Nk]
            integrator LoadControl $LincrReduced
            for {set ik 1} {$ik <=$Nk} {incr ik 1} {
                if {$continueFlag==0} {
                    break
                }
                set t [format "%7.5f" [expr [getTime] + $LincrReduced]]
                puts -nonewline "(1) $algorithmTypeStatic$strIni LF $t "
                set AnalOk [analyze 1]; # zero for convergence
                if {$AnalOk == 0} {
                    set LoadCounter [expr $LoadCounter+1.0/$Nk]
                    set committedSteps [expr $committedSteps+1]
                } else {
                    set continueFlag 0
                }
            }
            if {$AnalOk == 0} {
                set returnToInitStepFlag 1
            }
        }; # end if Nk=8
        # substepping /16
        if {($Nk == 8 && $AnalOk!=0)} {
            set Nk 16; # reduce step size
            set continueFlag 1
            puts "\nInitial step is divided by 16\n"
            set LincrReduced [expr $Lincr/$Nk]
            integrator LoadControl $LincrReduced
            for {set ik 1} {$ik <=$Nk} {incr ik 1} {
                if {$continueFlag==0} {
                    break
                }
                set t [format "%7.5f" [expr [getTime] + $LincrReduced]]
                puts -nonewline "(1) $algorithmTypeStatic$strIni LF $t "
                set AnalOk [analyze 1]; # zero for convergence
                if {$AnalOk == 0} {
                    set LoadCounter [expr $LoadCounter+1.0/$Nk]
                    set committedSteps [expr $committedSteps+1]
                } else {
                    set continueFlag 0
                }
            }
            if {$AnalOk == 0} {
                set returnToInitStepFlag 1
            }
        }; # end if Nk=16
    }; # end while loop
}; # end if AnalOk

if {$AnalOk == 0} {
    puts "\nAnalysis completed SUCCESSFULLY"
    puts "Committed steps : $committedSteps\n"
} else {
    puts "\nAnalysis FAILED"
    puts "Committed steps : $committedSteps\n"
}

# all previously defined patterns are constant for so on.

loadConst -time 0.0

# --------------------------------------------------------------------------------------------------------------
#
# I N T E R V A L   2
#
# --------------------------------------------------------------------------------------------------------------

puts "Running interval 2"

# Loads - Plain Pattern

pattern Plain 200 Linear {
    load     97       50        0        0
    load    114      100        0        0
    load    134      150        0        0
    load    159      200        0        0
    load    188      250        0        0
    load    214      300        0        0
    load    228      350        0        0
}

# recording the initial status

record

# Analysis options

wipeAnalysis
system BandGeneral
numberer RCM
constraints Transformation
integrator DisplacementControl 204 1 0.005
test NormDispIncr 0.0001 100 2
algorithm Newton
analysis Static

set Dmax 0.5
set Dincr 0.005000
set Nsteps 100
set committedSteps 1
set IDctrlNode 204
set IDctrlDOF 1

set strIni {}
variable testTypeStatic NormDispIncr
variable TolStatic 0.0001
variable maxNumIterStatic 100
variable algorithmTypeStatic Newton

for {set i 1} { $i <= $Nsteps } {incr i 1} {
    set t [getTime]
    puts -nonewline "(2) $algorithmTypeStatic$strIni LF $t "
    set AnalOk [analyze 1]
    if {$AnalOk !=0} {
        break
    } else {
        set committedSteps [expr $committedSteps+1]
    }
}

if {$AnalOk != 0} {; # if analysis fails, alternative algorithms and substepping is applied
    set firstFail 1
    set Dstep 0.0
    set AnalOk 0
    set Nk 1
    set returnToInitStepFlag 0
    while {$Dstep <= 1.0 && $AnalOk == 0} {
        set controlDisp [nodeDisp $IDctrlNode $IDctrlDOF]
        set Dstep [expr $controlDisp/$Dmax]
        if {($Nk==2 && $AnalOk==0) || ($Nk==1 && $AnalOk==0)} {
            set Nk 1
            if {$returnToInitStepFlag} {
                puts "\nBack to initial step\n"
                set returnToInitStepFlag 0
            }
            if {$firstFail == 0} { # for the first time only, do not repeat previous failed step
                integrator DisplacementControl $IDctrlNode $IDctrlDOF $Dincr; # reset to original increment
                set t [getTime]
                puts -nonewline "(2) $algorithmTypeStatic$strIni LF $t "
                set AnalOk [analyze 1]; # zero for convergence
            } else {
                set AnalOk 1
                set firstFail 0
            }
            if {$AnalOk == 0} {
                set committedSteps [expr $committedSteps+1]
            }
        }; # end if Nk=1
        # substepping /2
        if {($AnalOk !=0 && $Nk==1) || ($AnalOk==0 && $Nk==4)} {
            set Nk 2; # reduce step size
            set continueFlag 1
            puts "\nInitial step is divided by 2\n"
            set DincrReduced [expr $Dincr/$Nk]
            integrator DisplacementControl $IDctrlNode $IDctrlDOF $DincrReduced
            for {set ik 1} {$ik <=$Nk} {incr ik 1} {
                if {$continueFlag==0} {
                    break
                }
                set t [getTime]
                puts -nonewline "(2) $algorithmTypeStatic$strIni LF $t "
                set AnalOk [analyze 1]; # zero for convergence
                if {$AnalOk == 0} {
                    set committedSteps [expr $committedSteps+1]
                } else {
                    set continueFlag 0
                }
            }
            if {$AnalOk == 0} {
                set returnToInitStepFlag 1
            }
        }; # end if Nk=2
        # substepping /4
        if {($AnalOk !=0 && $Nk==2) || ($AnalOk==0 && $Nk==8)} {
            set Nk 4; # reduce step size
            set continueFlag 1
            puts "\nInitial step is divided by 4\n"
            set DincrReduced [expr $Dincr/$Nk]
            integrator DisplacementControl $IDctrlNode $IDctrlDOF $DincrReduced
            for {set ik 1} {$ik <=$Nk} {incr ik 1} {
                if {$continueFlag==0} {
                    break
                }
                set t [getTime]
                puts -nonewline "(2) $algorithmTypeStatic$strIni LF $t "
                set AnalOk [analyze 1]; # zero for convergence
                if {$AnalOk == 0} {
                    set committedSteps [expr $committedSteps+1]
                } else {
                    set continueFlag 0
                }
            }
            if {$AnalOk == 0} {
                set returnToInitStepFlag 1
            }
        }; # end if Nk=4
        # substepping /8
        if {$AnalOk !=0 && $Nk==4 || ($Nk == 16 && $AnalOk == 0)} {
            set Nk 8; # reduce step size
            set continueFlag 1
            puts "\nInitial step is divided by 8\n"
            set DincrReduced [expr $Dincr/$Nk]
            integrator DisplacementControl $IDctrlNode $IDctrlDOF $DincrReduced
            for {set ik 1} {$ik <=$Nk} {incr ik 1} {
                if {$continueFlag==0} {
                    break
                }
                set t [getTime]
                puts -nonewline "(2) $algorithmTypeStatic$strIni LF $t "
                set AnalOk [analyze 1]; # zero for convergence
                if {$AnalOk == 0} {
                    set committedSteps [expr $committedSteps+1]
                } else {
                    set continueFlag 0
                }
            }
            if {$AnalOk == 0} {
            set returnToInitStepFlag 1
            }
        }; # end if Nk=8
        # substepping /16
        if {($Nk == 8 && $AnalOk!=0)} {
            set Nk 16; # reduce step size
            set continueFlag 1
            puts "\nInitial step is divided by 16\n"
            set DincrReduced [expr $Dincr/$Nk]
            integrator DisplacementControl $IDctrlNode $IDctrlDOF $DincrReduced
            for {set ik 1} {$ik <=$Nk} {incr ik 1} {
                if {$continueFlag==0} {
                    break
                }
                set t [getTime]
                puts -nonewline "(2) $algorithmTypeStatic$strIni LF $t "
                set AnalOk [analyze 1]; # zero for convergence
                if {$AnalOk == 0} {
                    set committedSteps [expr $committedSteps+1]
                } else {
                    set continueFlag 0
                }
            }
            if {$AnalOk == 0} {
                set returnToInitStepFlag 1
            }
        }; # end if Nk=16
        set controlDisp [nodeDisp $IDctrlNode $IDctrlDOF]
        set Dstep [expr $controlDisp/$Dmax]
    }; # end while loop
}; # end if AnalOk

if {$AnalOk == 0} {
    puts "\nAnalysis completed SUCCESSFULLY"
    puts "Committed steps : $committedSteps\n"
} else {
    puts "\nAnalysis FAILED"
    puts "Committed steps : $committedSteps\n"
}

# all previously defined patterns are constant for so on.

loadConst -time 0.0

# --------------------------------------------------------------------------------------------------------------

set hour 0.0
set minute 0.0
set second 0.0
set time_end [clock seconds]
set analysisTime [expr $time_end-$time_start]

puts "Analysis finished.\n"

if {$analysisTime<60} {
    if {$analysisTime==0} {
        puts "Analysis time : less than one second"
    } elseif {$analysisTime==1} {
        puts "Analysis time : 1 second"
    } else {
        puts "Analysis time : $analysisTime seconds"
    }

}  elseif {$analysisTime<3600} {
    set minutes [expr $analysisTime/60]
    set seconds [expr $analysisTime%60]

    if {$minutes==1} {
        puts -nonewline "Analysis time : 1 minute"
    } else {
        puts -nonewline "Analysis time : $minutes minutes"
    }

    if {$seconds==0} {
        puts ""
    } elseif {$seconds==1} {
        puts " and 1 second"
    } else {
        puts " and $seconds seconds"
    }

} else  {
    set hours [expr $analysisTime/3600]
    set minutes [expr ($analysisTime%3600)/60]
    set seconds [expr ($analysisTime%3600)%60]

    if {$hours==1} {
        puts -nonewline "Analysis time : 1 hour"
    } else {
        puts -nonewline "Analysis time : $hours hours"
    }

    if {$minutes==0} {
    } elseif {$minute==1} {
        puts -nonewline ", 1 minute"
    } else {
        puts -nonewline ", $minutes minutes"
    }

    if {$seconds==0} {
        puts ""
    } elseif {$second==1} {
        puts " and 1 second"
    } else {
        puts " and $seconds seconds"
    }
}

# --------------------------------------------------------------------------------------------------------------
#
# M E T A D A T A
#
# --------------------------------------------------------------------------------------------------------------

# Number of nodes
# 228

# Elements 1D
# 245

# Elements 2D
# 0

# Elements 3D
# 0

# ForceBeamColumn
# 245
# 1 2 3 4 5 6 7 8 9 10 11 12 13 14 15 16 17 18 19 20 21 22 23 24 25 26 27 28 29 30 31 32 33 34 35 36 37 38 39 40 41 42 43 44 45 46 47 48 49 50 51 52 53 54 55 56 57 58 59 60 61 62 63 64 65 66 67 68 69 70 71 72 73 74 75 76 77 78 79 80 81 82 83 84 85 86 87 88 89 90 91 92 93 94 95 96 97 98 99 100 101 102 103 104 105 106 107 108 109 110 111 112 113 114 115 116 117 118 119 120 121 122 123 124 125 126 12

# -------------------------------------------------------------------------------------------------------------------------------------------------------------------------
#
# F R A M E   L O C A L   A X E S   O R I E N T A T I O N
#
# -------------------------------------------------------------------------------------------------------------------------------------------------------------------------
#
#      ID                           Type                       Local-x                       Local-y                       Local-z          Literal      Material / Section
#
#       1                forceBeamColumn     {+0.0000 +1.0000 +0.0000}     {-1.0000 +0.0000 +0.0000}     {+0.0000 -0.0000 +1.0000}     { +Y -X +Z };   # Column section
#       2                forceBeamColumn     {+0.0000 +1.0000 +0.0000}     {-1.0000 +0.0000 +0.0000}     {+0.0000 -0.0000 +1.0000}     { +Y -X +Z };   # Column section
#       3                forceBeamColumn     {+0.0000 +1.0000 +0.0000}     {-1.0000 +0.0000 +0.0000}     {+0.0000 -0.0000 +1.0000}     { +Y -X +Z };   # Column section
#       4                forceBeamColumn     {+0.0000 +1.0000 +0.0000}     {-1.0000 +0.0000 +0.0000}     {+0.0000 -0.0000 +1.0000}     { +Y -X +Z };   # Column section
#       5                forceBeamColumn     {+0.0000 +1.0000 +0.0000}     {-1.0000 +0.0000 +0.0000}     {+0.0000 -0.0000 +1.0000}     { +Y -X +Z };   # Column section
#       6                forceBeamColumn     {+1.0000 +0.0000 +0.0000}     {+0.0000 +1.0000 +0.0000}     {+0.0000 +0.0000 +1.0000}     { +X +Y +Z };   # Beam section
#       7                forceBeamColumn     {+1.0000 +0.0000 +0.0000}     {+0.0000 +1.0000 +0.0000}     {+0.0000 +0.0000 +1.0000}     { +X +Y +Z };   # Beam section
#       8                forceBeamColumn     {+1.0000 +0.0000 +0.0000}     {+0.0000 +1.0000 +0.0000}     {+0.0000 +0.0000 +1.0000}     { +X +Y +Z };   # Beam section
#       9                forceBeamColumn     {+1.0000 +0.0000 +0.0000}     {+0.0000 +1.0000 +0.0000}     {+0.0000 +0.0000 +1.0000}     { +X +Y +Z };   # Beam section
#      10                forceBeamColumn     {+1.0000 +0.0000 +0.0000}     {+0.0000 +1.0000 +0.0000}     {+0.0000 +0.0000 +1.0000}     { +X +Y +Z };   # Beam section
#      11                forceBeamColumn     {+0.0000 +1.0000 +0.0000}     {-1.0000 +0.0000 +0.0000}     {+0.0000 -0.0000 +1.0000}     { +Y -X +Z };   # Column section
#      12                forceBeamColumn     {+0.0000 +1.0000 +0.0000}     {-1.0000 +0.0000 +0.0000}     {+0.0000 -0.0000 +1.0000}     { +Y -X +Z };   # Column section
#      13                forceBeamColumn     {+0.0000 +1.0000 +0.0000}     {-1.0000 +0.0000 +0.0000}     {+0.0000 -0.0000 +1.0000}     { +Y -X +Z };   # Column section
#      14                forceBeamColumn     {+0.0000 +1.0000 +0.0000}     {-1.0000 +0.0000 +0.0000}     {+0.0000 -0.0000 +1.0000}     { +Y -X +Z };   # Column section
#      15                forceBeamColumn     {+0.0000 +1.0000 +0.0000}     {-1.0000 +0.0000 +0.0000}     {+0.0000 -0.0000 +1.0000}     { +Y -X +Z };   # Column section
#      16                forceBeamColumn     {+1.0000 +0.0000 +0.0000}     {+0.0000 +1.0000 +0.0000}     {+0.0000 +0.0000 +1.0000}     { +X +Y +Z };   # Beam section
#      17                forceBeamColumn     {+1.0000 +0.0000 +0.0000}     {+0.0000 +1.0000 +0.0000}     {+0.0000 +0.0000 +1.0000}     { +X +Y +Z };   # Beam section
#      18                forceBeamColumn     {+1.0000 +0.0000 +0.0000}     {+0.0000 +1.0000 +0.0000}     {+0.0000 +0.0000 +1.0000}     { +X +Y +Z };   # Beam section
#      19                forceBeamColumn     {+1.0000 +0.0000 +0.0000}     {+0.0000 +1.0000 +0.0000}     {+0.0000 +0.0000 +1.0000}     { +X +Y +Z };   # Beam section
#      20                forceBeamColumn     {+1.0000 +0.0000 +0.0000}     {+0.0000 +1.0000 +0.0000}     {+0.0000 +0.0000 +1.0000}     { +X +Y +Z };   # Beam section
#      21                forceBeamColumn     {+0.0000 +1.0000 +0.0000}     {-1.0000 +0.0000 +0.0000}     {+0.0000 -0.0000 +1.0000}     { +Y -X +Z };   # Column section
#      22                forceBeamColumn     {+0.0000 +1.0000 +0.0000}     {-1.0000 +0.0000 +0.0000}     {+0.0000 -0.0000 +1.0000}     { +Y -X +Z };   # Column section
#      23                forceBeamColumn     {+0.0000 +1.0000 +0.0000}     {-1.0000 +0.0000 +0.0000}     {+0.0000 -0.0000 +1.0000}     { +Y -X +Z };   # Column section
#      24                forceBeamColumn     {+0.0000 +1.0000 +0.0000}     {-1.0000 +0.0000 +0.0000}     {+0.0000 -0.0000 +1.0000}     { +Y -X +Z };   # Column section
#      25                forceBeamColumn     {+0.0000 +1.0000 +0.0000}     {-1.0000 +0.0000 +0.0000}     {+0.0000 -0.0000 +1.0000}     { +Y -X +Z };   # Column section
#      26                forceBeamColumn     {+1.0000 +0.0000 +0.0000}     {+0.0000 +1.0000 +0.0000}     {+0.0000 +0.0000 +1.0000}     { +X +Y +Z };   # Beam section
#      27                forceBeamColumn     {+1.0000 +0.0000 +0.0000}     {+0.0000 +1.0000 +0.0000}     {+0.0000 +0.0000 +1.0000}     { +X +Y +Z };   # Beam section
#      28                forceBeamColumn     {+1.0000 +0.0000 +0.0000}     {+0.0000 +1.0000 +0.0000}     {+0.0000 +0.0000 +1.0000}     { +X +Y +Z };   # Beam section
#      29                forceBeamColumn     {+1.0000 +0.0000 +0.0000}     {+0.0000 +1.0000 +0.0000}     {+0.0000 +0.0000 +1.0000}     { +X +Y +Z };   # Beam section
#      30                forceBeamColumn     {+1.0000 +0.0000 +0.0000}     {+0.0000 +1.0000 +0.0000}     {+0.0000 +0.0000 +1.0000}     { +X +Y +Z };   # Beam section
#      31                forceBeamColumn     {+0.0000 +1.0000 +0.0000}     {-1.0000 +0.0000 +0.0000}     {+0.0000 -0.0000 +1.0000}     { +Y -X +Z };   # Column section
#      32                forceBeamColumn     {+0.0000 +1.0000 +0.0000}     {-1.0000 +0.0000 +0.0000}     {+0.0000 -0.0000 +1.0000}     { +Y -X +Z };   # Column section
#      33                forceBeamColumn     {+0.0000 +1.0000 +0.0000}     {-1.0000 +0.0000 +0.0000}     {+0.0000 -0.0000 +1.0000}     { +Y -X +Z };   # Column section
#      34                forceBeamColumn     {+0.0000 +1.0000 +0.0000}     {-1.0000 +0.0000 +0.0000}     {+0.0000 -0.0000 +1.0000}     { +Y -X +Z };   # Column section
#      35                forceBeamColumn     {+0.0000 +1.0000 +0.0000}     {-1.0000 +0.0000 +0.0000}     {+0.0000 -0.0000 +1.0000}     { +Y -X +Z };   # Column section
#      36                forceBeamColumn     {+0.0000 +1.0000 +0.0000}     {-1.0000 +0.0000 +0.0000}     {+0.0000 -0.0000 +1.0000}     { +Y -X +Z };   # Column section
#      37                forceBeamColumn     {+0.0000 +1.0000 +0.0000}     {-1.0000 +0.0000 +0.0000}     {+0.0000 -0.0000 +1.0000}     { +Y -X +Z };   # Column section
#      38                forceBeamColumn     {+0.0000 +1.0000 +0.0000}     {-1.0000 +0.0000 +0.0000}     {+0.0000 -0.0000 +1.0000}     { +Y -X +Z };   # Column section
#      39                forceBeamColumn     {+0.0000 +1.0000 +0.0000}     {-1.0000 +0.0000 +0.0000}     {+0.0000 -0.0000 +1.0000}     { +Y -X +Z };   # Column section
#      40                forceBeamColumn     {+0.0000 +1.0000 +0.0000}     {-1.0000 +0.0000 +0.0000}     {+0.0000 -0.0000 +1.0000}     { +Y -X +Z };   # Column section
#      41                forceBeamColumn     {+1.0000 +0.0000 +0.0000}     {+0.0000 +1.0000 +0.0000}     {+0.0000 +0.0000 +1.0000}     { +X +Y +Z };   # Beam section
#      42                forceBeamColumn     {+1.0000 +0.0000 +0.0000}     {+0.0000 +1.0000 +0.0000}     {+0.0000 +0.0000 +1.0000}     { +X +Y +Z };   # Beam section
#      43                forceBeamColumn     {+1.0000 +0.0000 +0.0000}     {+0.0000 +1.0000 +0.0000}     {+0.0000 +0.0000 +1.0000}     { +X +Y +Z };   # Beam section
#      44                forceBeamColumn     {+1.0000 +0.0000 +0.0000}     {+0.0000 +1.0000 +0.0000}     {+0.0000 +0.0000 +1.0000}     { +X +Y +Z };   # Beam section
#      45                forceBeamColumn     {+1.0000 +0.0000 +0.0000}     {+0.0000 +1.0000 +0.0000}     {+0.0000 +0.0000 +1.0000}     { +X +Y +Z };   # Beam section
#      46                forceBeamColumn     {+0.0000 +1.0000 +0.0000}     {-1.0000 +0.0000 +0.0000}     {+0.0000 -0.0000 +1.0000}     { +Y -X +Z };   # Column section
#      47                forceBeamColumn     {+0.0000 +1.0000 +0.0000}     {-1.0000 +0.0000 +0.0000}     {+0.0000 -0.0000 +1.0000}     { +Y -X +Z };   # Column section
#      48                forceBeamColumn     {+0.0000 +1.0000 +0.0000}     {-1.0000 +0.0000 +0.0000}     {+0.0000 -0.0000 +1.0000}     { +Y -X +Z };   # Column section
#      49                forceBeamColumn     {+0.0000 +1.0000 +0.0000}     {-1.0000 +0.0000 +0.0000}     {+0.0000 -0.0000 +1.0000}     { +Y -X +Z };   # Column section
#      50                forceBeamColumn     {+0.0000 +1.0000 +0.0000}     {-1.0000 +0.0000 +0.0000}     {+0.0000 -0.0000 +1.0000}     { +Y -X +Z };   # Column section
#      51                forceBeamColumn     {+1.0000 +0.0000 +0.0000}     {+0.0000 +1.0000 +0.0000}     {+0.0000 +0.0000 +1.0000}     { +X +Y +Z };   # Beam section
#      52                forceBeamColumn     {+1.0000 +0.0000 +0.0000}     {+0.0000 +1.0000 +0.0000}     {+0.0000 +0.0000 +1.0000}     { +X +Y +Z };   # Beam section
#      53                forceBeamColumn     {+1.0000 +0.0000 +0.0000}     {+0.0000 +1.0000 +0.0000}     {+0.0000 +0.0000 +1.0000}     { +X +Y +Z };   # Beam section
#      54                forceBeamColumn     {+1.0000 +0.0000 +0.0000}     {+0.0000 +1.0000 +0.0000}     {+0.0000 +0.0000 +1.0000}     { +X +Y +Z };   # Beam section
#      55                forceBeamColumn     {+1.0000 +0.0000 +0.0000}     {+0.0000 +1.0000 +0.0000}     {+0.0000 +0.0000 +1.0000}     { +X +Y +Z };   # Beam section
#      56                forceBeamColumn     {+0.0000 +1.0000 +0.0000}     {-1.0000 +0.0000 +0.0000}     {+0.0000 -0.0000 +1.0000}     { +Y -X +Z };   # Column section
#      57                forceBeamColumn     {+0.0000 +1.0000 +0.0000}     {-1.0000 +0.0000 +0.0000}     {+0.0000 -0.0000 +1.0000}     { +Y -X +Z };   # Column section
#      58                forceBeamColumn     {+0.0000 +1.0000 +0.0000}     {-1.0000 +0.0000 +0.0000}     {+0.0000 -0.0000 +1.0000}     { +Y -X +Z };   # Column section
#      59                forceBeamColumn     {+0.0000 +1.0000 +0.0000}     {-1.0000 +0.0000 +0.0000}     {+0.0000 -0.0000 +1.0000}     { +Y -X +Z };   # Column section
#      60                forceBeamColumn     {+0.0000 +1.0000 +0.0000}     {-1.0000 +0.0000 +0.0000}     {+0.0000 -0.0000 +1.0000}     { +Y -X +Z };   # Column section
#      61                forceBeamColumn     {+1.0000 +0.0000 +0.0000}     {+0.0000 +1.0000 +0.0000}     {+0.0000 +0.0000 +1.0000}     { +X +Y +Z };   # Beam section
#      62                forceBeamColumn     {+1.0000 +0.0000 +0.0000}     {+0.0000 +1.0000 +0.0000}     {+0.0000 +0.0000 +1.0000}     { +X +Y +Z };   # Beam section
#      63                forceBeamColumn     {+1.0000 +0.0000 +0.0000}     {+0.0000 +1.0000 +0.0000}     {+0.0000 +0.0000 +1.0000}     { +X +Y +Z };   # Beam section
#      64                forceBeamColumn     {+1.0000 +0.0000 +0.0000}     {+0.0000 +1.0000 +0.0000}     {+0.0000 +0.0000 +1.0000}     { +X +Y +Z };   # Beam section
#      65                forceBeamColumn     {+1.0000 +0.0000 +0.0000}     {+0.0000 +1.0000 +0.0000}     {+0.0000 +0.0000 +1.0000}     { +X +Y +Z };   # Beam section
#      66                forceBeamColumn     {+0.0000 +1.0000 +0.0000}     {-1.0000 +0.0000 +0.0000}     {+0.0000 -0.0000 +1.0000}     { +Y -X +Z };   # Column section
#      67                forceBeamColumn     {+0.0000 +1.0000 +0.0000}     {-1.0000 +0.0000 +0.0000}     {+0.0000 -0.0000 +1.0000}     { +Y -X +Z };   # Column section
#      68                forceBeamColumn     {+0.0000 +1.0000 +0.0000}     {-1.0000 +0.0000 +0.0000}     {+0.0000 -0.0000 +1.0000}     { +Y -X +Z };   # Column section
#      69                forceBeamColumn     {+0.0000 +1.0000 +0.0000}     {-1.0000 +0.0000 +0.0000}     {+0.0000 -0.0000 +1.0000}     { +Y -X +Z };   # Column section
#      70                forceBeamColumn     {+0.0000 +1.0000 +0.0000}     {-1.0000 +0.0000 +0.0000}     {+0.0000 -0.0000 +1.0000}     { +Y -X +Z };   # Column section
#      71                forceBeamColumn     {+0.0000 +1.0000 +0.0000}     {-1.0000 +0.0000 +0.0000}     {+0.0000 -0.0000 +1.0000}     { +Y -X +Z };   # Column section
#      72                forceBeamColumn     {+0.0000 +1.0000 +0.0000}     {-1.0000 +0.0000 +0.0000}     {+0.0000 -0.0000 +1.0000}     { +Y -X +Z };   # Column section
#      73                forceBeamColumn     {+0.0000 +1.0000 +0.0000}     {-1.0000 +0.0000 +0.0000}     {+0.0000 -0.0000 +1.0000}     { +Y -X +Z };   # Column section
#      74                forceBeamColumn     {+0.0000 +1.0000 +0.0000}     {-1.0000 +0.0000 +0.0000}     {+0.0000 -0.0000 +1.0000}     { +Y -X +Z };   # Column section
#      75                forceBeamColumn     {+0.0000 +1.0000 +0.0000}     {-1.0000 +0.0000 +0.0000}     {+0.0000 -0.0000 +1.0000}     { +Y -X +Z };   # Column section
#      76                forceBeamColumn     {+1.0000 +0.0000 +0.0000}     {+0.0000 +1.0000 +0.0000}     {+0.0000 +0.0000 +1.0000}     { +X +Y +Z };   # Beam section
#      77                forceBeamColumn     {+1.0000 +0.0000 +0.0000}     {+0.0000 +1.0000 +0.0000}     {+0.0000 +0.0000 +1.0000}     { +X +Y +Z };   # Beam section
#      78                forceBeamColumn     {+1.0000 +0.0000 +0.0000}     {+0.0000 +1.0000 +0.0000}     {+0.0000 +0.0000 +1.0000}     { +X +Y +Z };   # Beam section
#      79                forceBeamColumn     {+1.0000 +0.0000 +0.0000}     {+0.0000 +1.0000 +0.0000}     {+0.0000 +0.0000 +1.0000}     { +X +Y +Z };   # Beam section
#      80                forceBeamColumn     {+1.0000 +0.0000 +0.0000}     {+0.0000 +1.0000 +0.0000}     {+0.0000 +0.0000 +1.0000}     { +X +Y +Z };   # Beam section
#      81                forceBeamColumn     {+0.0000 +1.0000 +0.0000}     {-1.0000 +0.0000 +0.0000}     {+0.0000 -0.0000 +1.0000}     { +Y -X +Z };   # Column section
#      82                forceBeamColumn     {+0.0000 +1.0000 +0.0000}     {-1.0000 +0.0000 +0.0000}     {+0.0000 -0.0000 +1.0000}     { +Y -X +Z };   # Column section
#      83                forceBeamColumn     {+0.0000 +1.0000 +0.0000}     {-1.0000 +0.0000 +0.0000}     {+0.0000 -0.0000 +1.0000}     { +Y -X +Z };   # Column section
#      84                forceBeamColumn     {+0.0000 +1.0000 +0.0000}     {-1.0000 +0.0000 +0.0000}     {+0.0000 -0.0000 +1.0000}     { +Y -X +Z };   # Column section
#      85                forceBeamColumn     {+0.0000 +1.0000 +0.0000}     {-1.0000 +0.0000 +0.0000}     {+0.0000 -0.0000 +1.0000}     { +Y -X +Z };   # Column section
#      86                forceBeamColumn     {+1.0000 +0.0000 +0.0000}     {+0.0000 +1.0000 +0.0000}     {+0.0000 +0.0000 +1.0000}     { +X +Y +Z };   # Beam section
#      87                forceBeamColumn     {+1.0000 +0.0000 +0.0000}     {+0.0000 +1.0000 +0.0000}     {+0.0000 +0.0000 +1.0000}     { +X +Y +Z };   # Beam section
#      88                forceBeamColumn     {+1.0000 +0.0000 +0.0000}     {+0.0000 +1.0000 +0.0000}     {+0.0000 +0.0000 +1.0000}     { +X +Y +Z };   # Beam section
#      89                forceBeamColumn     {+1.0000 +0.0000 +0.0000}     {+0.0000 +1.0000 +0.0000}     {+0.0000 +0.0000 +1.0000}     { +X +Y +Z };   # Beam section
#      90                forceBeamColumn     {+1.0000 +0.0000 +0.0000}     {+0.0000 +1.0000 +0.0000}     {+0.0000 +0.0000 +1.0000}     { +X +Y +Z };   # Beam section
#      91                forceBeamColumn     {+0.0000 +1.0000 +0.0000}     {-1.0000 +0.0000 +0.0000}     {+0.0000 -0.0000 +1.0000}     { +Y -X +Z };   # Column section
#      92                forceBeamColumn     {+0.0000 +1.0000 +0.0000}     {-1.0000 +0.0000 +0.0000}     {+0.0000 -0.0000 +1.0000}     { +Y -X +Z };   # Column section
#      93                forceBeamColumn     {+0.0000 +1.0000 +0.0000}     {-1.0000 +0.0000 +0.0000}     {+0.0000 -0.0000 +1.0000}     { +Y -X +Z };   # Column section
#      94                forceBeamColumn     {+0.0000 +1.0000 +0.0000}     {-1.0000 +0.0000 +0.0000}     {+0.0000 -0.0000 +1.0000}     { +Y -X +Z };   # Column section
#      95                forceBeamColumn     {+0.0000 +1.0000 +0.0000}     {-1.0000 +0.0000 +0.0000}     {+0.0000 -0.0000 +1.0000}     { +Y -X +Z };   # Column section
#      96                forceBeamColumn     {+1.0000 +0.0000 +0.0000}     {+0.0000 +1.0000 +0.0000}     {+0.0000 +0.0000 +1.0000}     { +X +Y +Z };   # Beam section
#      97                forceBeamColumn     {+1.0000 +0.0000 +0.0000}     {+0.0000 +1.0000 +0.0000}     {+0.0000 +0.0000 +1.0000}     { +X +Y +Z };   # Beam section
#      98                forceBeamColumn     {+1.0000 +0.0000 +0.0000}     {+0.0000 +1.0000 +0.0000}     {+0.0000 +0.0000 +1.0000}     { +X +Y +Z };   # Beam section
#      99                forceBeamColumn     {+1.0000 +0.0000 +0.0000}     {+0.0000 +1.0000 +0.0000}     {+0.0000 +0.0000 +1.0000}     { +X +Y +Z };   # Beam section
#     100                forceBeamColumn     {+1.0000 +0.0000 +0.0000}     {+0.0000 +1.0000 +0.0000}     {+0.0000 +0.0000 +1.0000}     { +X +Y +Z };   # Beam section
#     101                forceBeamColumn     {+0.0000 +1.0000 +0.0000}     {-1.0000 +0.0000 +0.0000}     {+0.0000 -0.0000 +1.0000}     { +Y -X +Z };   # Column section
#     102                forceBeamColumn     {+0.0000 +1.0000 +0.0000}     {-1.0000 +0.0000 +0.0000}     {+0.0000 -0.0000 +1.0000}     { +Y -X +Z };   # Column section
#     103                forceBeamColumn     {+0.0000 +1.0000 +0.0000}     {-1.0000 +0.0000 +0.0000}     {+0.0000 -0.0000 +1.0000}     { +Y -X +Z };   # Column section
#     104                forceBeamColumn     {+0.0000 +1.0000 +0.0000}     {-1.0000 +0.0000 +0.0000}     {+0.0000 -0.0000 +1.0000}     { +Y -X +Z };   # Column section
#     105                forceBeamColumn     {+0.0000 +1.0000 +0.0000}     {-1.0000 +0.0000 +0.0000}     {+0.0000 -0.0000 +1.0000}     { +Y -X +Z };   # Column section
#     106                forceBeamColumn     {+0.0000 +1.0000 +0.0000}     {-1.0000 +0.0000 +0.0000}     {+0.0000 -0.0000 +1.0000}     { +Y -X +Z };   # Column section
#     107                forceBeamColumn     {+0.0000 +1.0000 +0.0000}     {-1.0000 +0.0000 +0.0000}     {+0.0000 -0.0000 +1.0000}     { +Y -X +Z };   # Column section
#     108                forceBeamColumn     {+0.0000 +1.0000 +0.0000}     {-1.0000 +0.0000 +0.0000}     {+0.0000 -0.0000 +1.0000}     { +Y -X +Z };   # Column section
#     109                forceBeamColumn     {+0.0000 +1.0000 +0.0000}     {-1.0000 +0.0000 +0.0000}     {+0.0000 -0.0000 +1.0000}     { +Y -X +Z };   # Column section
#     110                forceBeamColumn     {+0.0000 +1.0000 +0.0000}     {-1.0000 +0.0000 +0.0000}     {+0.0000 -0.0000 +1.0000}     { +Y -X +Z };   # Column section
#     111                forceBeamColumn     {+1.0000 +0.0000 +0.0000}     {+0.0000 +1.0000 +0.0000}     {+0.0000 +0.0000 +1.0000}     { +X +Y +Z };   # Beam section
#     112                forceBeamColumn     {+1.0000 +0.0000 +0.0000}     {+0.0000 +1.0000 +0.0000}     {+0.0000 +0.0000 +1.0000}     { +X +Y +Z };   # Beam section
#     113                forceBeamColumn     {+1.0000 +0.0000 +0.0000}     {+0.0000 +1.0000 +0.0000}     {+0.0000 +0.0000 +1.0000}     { +X +Y +Z };   # Beam section
#     114                forceBeamColumn     {+1.0000 +0.0000 +0.0000}     {+0.0000 +1.0000 +0.0000}     {+0.0000 +0.0000 +1.0000}     { +X +Y +Z };   # Beam section
#     115                forceBeamColumn     {+1.0000 +0.0000 +0.0000}     {+0.0000 +1.0000 +0.0000}     {+0.0000 +0.0000 +1.0000}     { +X +Y +Z };   # Beam section
#     116                forceBeamColumn     {+0.0000 +1.0000 +0.0000}     {-1.0000 +0.0000 +0.0000}     {+0.0000 -0.0000 +1.0000}     { +Y -X +Z };   # Column section
#     117                forceBeamColumn     {+0.0000 +1.0000 +0.0000}     {-1.0000 +0.0000 +0.0000}     {+0.0000 -0.0000 +1.0000}     { +Y -X +Z };   # Column section
#     118                forceBeamColumn     {+0.0000 +1.0000 +0.0000}     {-1.0000 +0.0000 +0.0000}     {+0.0000 -0.0000 +1.0000}     { +Y -X +Z };   # Column section
#     119                forceBeamColumn     {+0.0000 +1.0000 +0.0000}     {-1.0000 +0.0000 +0.0000}     {+0.0000 -0.0000 +1.0000}     { +Y -X +Z };   # Column section
#     120                forceBeamColumn     {+0.0000 +1.0000 +0.0000}     {-1.0000 +0.0000 +0.0000}     {+0.0000 -0.0000 +1.0000}     { +Y -X +Z };   # Column section
#     121                forceBeamColumn     {+1.0000 +0.0000 +0.0000}     {+0.0000 +1.0000 +0.0000}     {+0.0000 +0.0000 +1.0000}     { +X +Y +Z };   # Beam section
#     122                forceBeamColumn     {+1.0000 +0.0000 +0.0000}     {+0.0000 +1.0000 +0.0000}     {+0.0000 +0.0000 +1.0000}     { +X +Y +Z };   # Beam section
#     123                forceBeamColumn     {+1.0000 +0.0000 +0.0000}     {+0.0000 +1.0000 +0.0000}     {+0.0000 +0.0000 +1.0000}     { +X +Y +Z };   # Beam section
#     124                forceBeamColumn     {+1.0000 +0.0000 +0.0000}     {+0.0000 +1.0000 +0.0000}     {+0.0000 +0.0000 +1.0000}     { +X +Y +Z };   # Beam section
#     125                forceBeamColumn     {+1.0000 +0.0000 +0.0000}     {+0.0000 +1.0000 +0.0000}     {+0.0000 +0.0000 +1.0000}     { +X +Y +Z };   # Beam section
#     126                forceBeamColumn     {+0.0000 +1.0000 +0.0000}     {-1.0000 +0.0000 +0.0000}     {+0.0000 -0.0000 +1.0000}     { +Y -X +Z };   # Column section
#     127                forceBeamColumn     {+0.0000 +1.0000 +0.0000}     {-1.0000 +0.0000 +0.0000}     {+0.0000 -0.0000 +1.0000}     { +Y -X +Z };   # Column section
#     128                forceBeamColumn     {+0.0000 +1.0000 +0.0000}     {-1.0000 +0.0000 +0.0000}     {+0.0000 -0.0000 +1.0000}     { +Y -X +Z };   # Column section
#     129                forceBeamColumn     {+0.0000 +1.0000 +0.0000}     {-1.0000 +0.0000 +0.0000}     {+0.0000 -0.0000 +1.0000}     { +Y -X +Z };   # Column section
#     130                forceBeamColumn     {+0.0000 +1.0000 +0.0000}     {-1.0000 +0.0000 +0.0000}     {+0.0000 -0.0000 +1.0000}     { +Y -X +Z };   # Column section
#     131                forceBeamColumn     {+1.0000 +0.0000 +0.0000}     {+0.0000 +1.0000 +0.0000}     {+0.0000 +0.0000 +1.0000}     { +X +Y +Z };   # Beam section
#     132                forceBeamColumn     {+1.0000 +0.0000 +0.0000}     {+0.0000 +1.0000 +0.0000}     {+0.0000 +0.0000 +1.0000}     { +X +Y +Z };   # Beam section
#     133                forceBeamColumn     {+1.0000 +0.0000 +0.0000}     {+0.0000 +1.0000 +0.0000}     {+0.0000 +0.0000 +1.0000}     { +X +Y +Z };   # Beam section
#     134                forceBeamColumn     {+1.0000 +0.0000 +0.0000}     {+0.0000 +1.0000 +0.0000}     {+0.0000 +0.0000 +1.0000}     { +X +Y +Z };   # Beam section
#     135                forceBeamColumn     {+1.0000 +0.0000 +0.0000}     {+0.0000 +1.0000 +0.0000}     {+0.0000 +0.0000 +1.0000}     { +X +Y +Z };   # Beam section
#     136                forceBeamColumn     {+0.0000 +1.0000 +0.0000}     {-1.0000 +0.0000 +0.0000}     {+0.0000 -0.0000 +1.0000}     { +Y -X +Z };   # Column section
#     137                forceBeamColumn     {+0.0000 +1.0000 +0.0000}     {-1.0000 +0.0000 +0.0000}     {+0.0000 -0.0000 +1.0000}     { +Y -X +Z };   # Column section
#     138                forceBeamColumn     {+0.0000 +1.0000 +0.0000}     {-1.0000 +0.0000 +0.0000}     {+0.0000 -0.0000 +1.0000}     { +Y -X +Z };   # Column section
#     139                forceBeamColumn     {+0.0000 +1.0000 +0.0000}     {-1.0000 +0.0000 +0.0000}     {+0.0000 -0.0000 +1.0000}     { +Y -X +Z };   # Column section
#     140                forceBeamColumn     {+0.0000 +1.0000 +0.0000}     {-1.0000 +0.0000 +0.0000}     {+0.0000 -0.0000 +1.0000}     { +Y -X +Z };   # Column section
#     141                forceBeamColumn     {+0.0000 +1.0000 +0.0000}     {-1.0000 +0.0000 +0.0000}     {+0.0000 -0.0000 +1.0000}     { +Y -X +Z };   # Column section
#     142                forceBeamColumn     {+0.0000 +1.0000 +0.0000}     {-1.0000 +0.0000 +0.0000}     {+0.0000 -0.0000 +1.0000}     { +Y -X +Z };   # Column section
#     143                forceBeamColumn     {+0.0000 +1.0000 +0.0000}     {-1.0000 +0.0000 +0.0000}     {+0.0000 -0.0000 +1.0000}     { +Y -X +Z };   # Column section
#     144                forceBeamColumn     {+0.0000 +1.0000 +0.0000}     {-1.0000 +0.0000 +0.0000}     {+0.0000 -0.0000 +1.0000}     { +Y -X +Z };   # Column section
#     145                forceBeamColumn     {+0.0000 +1.0000 +0.0000}     {-1.0000 +0.0000 +0.0000}     {+0.0000 -0.0000 +1.0000}     { +Y -X +Z };   # Column section
#     146                forceBeamColumn     {+1.0000 +0.0000 +0.0000}     {+0.0000 +1.0000 +0.0000}     {+0.0000 +0.0000 +1.0000}     { +X +Y +Z };   # Beam section
#     147                forceBeamColumn     {+1.0000 +0.0000 +0.0000}     {+0.0000 +1.0000 +0.0000}     {+0.0000 +0.0000 +1.0000}     { +X +Y +Z };   # Beam section
#     148                forceBeamColumn     {+1.0000 +0.0000 +0.0000}     {+0.0000 +1.0000 +0.0000}     {+0.0000 +0.0000 +1.0000}     { +X +Y +Z };   # Beam section
#     149                forceBeamColumn     {+1.0000 +0.0000 +0.0000}     {+0.0000 +1.0000 +0.0000}     {+0.0000 +0.0000 +1.0000}     { +X +Y +Z };   # Beam section
#     150                forceBeamColumn     {+1.0000 +0.0000 +0.0000}     {+0.0000 +1.0000 +0.0000}     {+0.0000 +0.0000 +1.0000}     { +X +Y +Z };   # Beam section
#     151                forceBeamColumn     {+0.0000 +1.0000 +0.0000}     {-1.0000 +0.0000 +0.0000}     {+0.0000 -0.0000 +1.0000}     { +Y -X +Z };   # Column section
#     152                forceBeamColumn     {+0.0000 +1.0000 +0.0000}     {-1.0000 +0.0000 +0.0000}     {+0.0000 -0.0000 +1.0000}     { +Y -X +Z };   # Column section
#     153                forceBeamColumn     {+0.0000 +1.0000 +0.0000}     {-1.0000 +0.0000 +0.0000}     {+0.0000 -0.0000 +1.0000}     { +Y -X +Z };   # Column section
#     154                forceBeamColumn     {+0.0000 +1.0000 +0.0000}     {-1.0000 +0.0000 +0.0000}     {+0.0000 -0.0000 +1.0000}     { +Y -X +Z };   # Column section
#     155                forceBeamColumn     {+0.0000 +1.0000 +0.0000}     {-1.0000 +0.0000 +0.0000}     {+0.0000 -0.0000 +1.0000}     { +Y -X +Z };   # Column section
#     156                forceBeamColumn     {+1.0000 +0.0000 +0.0000}     {+0.0000 +1.0000 +0.0000}     {+0.0000 +0.0000 +1.0000}     { +X +Y +Z };   # Beam section
#     157                forceBeamColumn     {+1.0000 +0.0000 +0.0000}     {+0.0000 +1.0000 +0.0000}     {+0.0000 +0.0000 +1.0000}     { +X +Y +Z };   # Beam section
#     158                forceBeamColumn     {+1.0000 +0.0000 +0.0000}     {+0.0000 +1.0000 +0.0000}     {+0.0000 +0.0000 +1.0000}     { +X +Y +Z };   # Beam section
#     159                forceBeamColumn     {+1.0000 +0.0000 +0.0000}     {+0.0000 +1.0000 +0.0000}     {+0.0000 +0.0000 +1.0000}     { +X +Y +Z };   # Beam section
#     160                forceBeamColumn     {+1.0000 +0.0000 +0.0000}     {+0.0000 +1.0000 +0.0000}     {+0.0000 +0.0000 +1.0000}     { +X +Y +Z };   # Beam section
#     161                forceBeamColumn     {+0.0000 +1.0000 +0.0000}     {-1.0000 +0.0000 +0.0000}     {+0.0000 -0.0000 +1.0000}     { +Y -X +Z };   # Column section
#     162                forceBeamColumn     {+0.0000 +1.0000 +0.0000}     {-1.0000 +0.0000 +0.0000}     {+0.0000 -0.0000 +1.0000}     { +Y -X +Z };   # Column section
#     163                forceBeamColumn     {+0.0000 +1.0000 +0.0000}     {-1.0000 +0.0000 +0.0000}     {+0.0000 -0.0000 +1.0000}     { +Y -X +Z };   # Column section
#     164                forceBeamColumn     {+0.0000 +1.0000 +0.0000}     {-1.0000 +0.0000 +0.0000}     {+0.0000 -0.0000 +1.0000}     { +Y -X +Z };   # Column section
#     165                forceBeamColumn     {+0.0000 +1.0000 +0.0000}     {-1.0000 +0.0000 +0.0000}     {+0.0000 -0.0000 +1.0000}     { +Y -X +Z };   # Column section
#     166                forceBeamColumn     {+1.0000 +0.0000 +0.0000}     {+0.0000 +1.0000 +0.0000}     {+0.0000 +0.0000 +1.0000}     { +X +Y +Z };   # Beam section
#     167                forceBeamColumn     {+1.0000 +0.0000 +0.0000}     {+0.0000 +1.0000 +0.0000}     {+0.0000 +0.0000 +1.0000}     { +X +Y +Z };   # Beam section
#     168                forceBeamColumn     {+1.0000 +0.0000 +0.0000}     {+0.0000 +1.0000 +0.0000}     {+0.0000 +0.0000 +1.0000}     { +X +Y +Z };   # Beam section
#     169                forceBeamColumn     {+1.0000 +0.0000 +0.0000}     {+0.0000 +1.0000 +0.0000}     {+0.0000 +0.0000 +1.0000}     { +X +Y +Z };   # Beam section
#     170                forceBeamColumn     {+1.0000 +0.0000 +0.0000}     {+0.0000 +1.0000 +0.0000}     {+0.0000 +0.0000 +1.0000}     { +X +Y +Z };   # Beam section
#     171                forceBeamColumn     {+0.0000 +1.0000 +0.0000}     {-1.0000 +0.0000 +0.0000}     {+0.0000 -0.0000 +1.0000}     { +Y -X +Z };   # Column section
#     172                forceBeamColumn     {+0.0000 +1.0000 +0.0000}     {-1.0000 +0.0000 +0.0000}     {+0.0000 -0.0000 +1.0000}     { +Y -X +Z };   # Column section
#     173                forceBeamColumn     {+0.0000 +1.0000 +0.0000}     {-1.0000 +0.0000 +0.0000}     {+0.0000 -0.0000 +1.0000}     { +Y -X +Z };   # Column section
#     174                forceBeamColumn     {+0.0000 +1.0000 +0.0000}     {-1.0000 +0.0000 +0.0000}     {+0.0000 -0.0000 +1.0000}     { +Y -X +Z };   # Column section
#     175                forceBeamColumn     {+0.0000 +1.0000 +0.0000}     {-1.0000 +0.0000 +0.0000}     {+0.0000 -0.0000 +1.0000}     { +Y -X +Z };   # Column section
#     176                forceBeamColumn     {+0.0000 +1.0000 +0.0000}     {-1.0000 +0.0000 +0.0000}     {+0.0000 -0.0000 +1.0000}     { +Y -X +Z };   # Column section
#     177                forceBeamColumn     {+0.0000 +1.0000 +0.0000}     {-1.0000 +0.0000 +0.0000}     {+0.0000 -0.0000 +1.0000}     { +Y -X +Z };   # Column section
#     178                forceBeamColumn     {+0.0000 +1.0000 +0.0000}     {-1.0000 +0.0000 +0.0000}     {+0.0000 -0.0000 +1.0000}     { +Y -X +Z };   # Column section
#     179                forceBeamColumn     {+0.0000 +1.0000 +0.0000}     {-1.0000 +0.0000 +0.0000}     {+0.0000 -0.0000 +1.0000}     { +Y -X +Z };   # Column section
#     180                forceBeamColumn     {+0.0000 +1.0000 +0.0000}     {-1.0000 +0.0000 +0.0000}     {+0.0000 -0.0000 +1.0000}     { +Y -X +Z };   # Column section
#     181                forceBeamColumn     {+1.0000 +0.0000 +0.0000}     {+0.0000 +1.0000 +0.0000}     {+0.0000 +0.0000 +1.0000}     { +X +Y +Z };   # Beam section
#     182                forceBeamColumn     {+1.0000 +0.0000 +0.0000}     {+0.0000 +1.0000 +0.0000}     {+0.0000 +0.0000 +1.0000}     { +X +Y +Z };   # Beam section
#     183                forceBeamColumn     {+1.0000 +0.0000 +0.0000}     {+0.0000 +1.0000 +0.0000}     {+0.0000 +0.0000 +1.0000}     { +X +Y +Z };   # Beam section
#     184                forceBeamColumn     {+1.0000 +0.0000 +0.0000}     {+0.0000 +1.0000 +0.0000}     {+0.0000 +0.0000 +1.0000}     { +X +Y +Z };   # Beam section
#     185                forceBeamColumn     {+1.0000 +0.0000 +0.0000}     {+0.0000 +1.0000 +0.0000}     {+0.0000 +0.0000 +1.0000}     { +X +Y +Z };   # Beam section
#     186                forceBeamColumn     {+0.0000 +1.0000 +0.0000}     {-1.0000 +0.0000 +0.0000}     {+0.0000 -0.0000 +1.0000}     { +Y -X +Z };   # Column section
#     187                forceBeamColumn     {+0.0000 +1.0000 +0.0000}     {-1.0000 +0.0000 +0.0000}     {+0.0000 -0.0000 +1.0000}     { +Y -X +Z };   # Column section
#     188                forceBeamColumn     {+0.0000 +1.0000 +0.0000}     {-1.0000 +0.0000 +0.0000}     {+0.0000 -0.0000 +1.0000}     { +Y -X +Z };   # Column section
#     189                forceBeamColumn     {+0.0000 +1.0000 +0.0000}     {-1.0000 +0.0000 +0.0000}     {+0.0000 -0.0000 +1.0000}     { +Y -X +Z };   # Column section
#     190                forceBeamColumn     {+0.0000 +1.0000 +0.0000}     {-1.0000 +0.0000 +0.0000}     {+0.0000 -0.0000 +1.0000}     { +Y -X +Z };   # Column section
#     191                forceBeamColumn     {+1.0000 +0.0000 +0.0000}     {+0.0000 +1.0000 +0.0000}     {+0.0000 +0.0000 +1.0000}     { +X +Y +Z };   # Beam section
#     192                forceBeamColumn     {+1.0000 +0.0000 +0.0000}     {+0.0000 +1.0000 +0.0000}     {+0.0000 +0.0000 +1.0000}     { +X +Y +Z };   # Beam section
#     193                forceBeamColumn     {+1.0000 +0.0000 +0.0000}     {+0.0000 +1.0000 +0.0000}     {+0.0000 +0.0000 +1.0000}     { +X +Y +Z };   # Beam section
#     194                forceBeamColumn     {+1.0000 +0.0000 +0.0000}     {+0.0000 +1.0000 +0.0000}     {+0.0000 +0.0000 +1.0000}     { +X +Y +Z };   # Beam section
#     195                forceBeamColumn     {+1.0000 +0.0000 +0.0000}     {+0.0000 +1.0000 +0.0000}     {+0.0000 +0.0000 +1.0000}     { +X +Y +Z };   # Beam section
#     196                forceBeamColumn     {+0.0000 +1.0000 +0.0000}     {-1.0000 +0.0000 +0.0000}     {+0.0000 -0.0000 +1.0000}     { +Y -X +Z };   # Column section
#     197                forceBeamColumn     {+0.0000 +1.0000 +0.0000}     {-1.0000 +0.0000 +0.0000}     {+0.0000 -0.0000 +1.0000}     { +Y -X +Z };   # Column section
#     198                forceBeamColumn     {+0.0000 +1.0000 +0.0000}     {-1.0000 +0.0000 +0.0000}     {+0.0000 -0.0000 +1.0000}     { +Y -X +Z };   # Column section
#     199                forceBeamColumn     {+0.0000 +1.0000 +0.0000}     {-1.0000 +0.0000 +0.0000}     {+0.0000 -0.0000 +1.0000}     { +Y -X +Z };   # Column section
#     200                forceBeamColumn     {+0.0000 +1.0000 +0.0000}     {-1.0000 +0.0000 +0.0000}     {+0.0000 -0.0000 +1.0000}     { +Y -X +Z };   # Column section
#     201                forceBeamColumn     {+1.0000 +0.0000 +0.0000}     {+0.0000 +1.0000 +0.0000}     {+0.0000 +0.0000 +1.0000}     { +X +Y +Z };   # Beam section
#     202                forceBeamColumn     {+1.0000 +0.0000 +0.0000}     {+0.0000 +1.0000 +0.0000}     {+0.0000 +0.0000 +1.0000}     { +X +Y +Z };   # Beam section
#     203                forceBeamColumn     {+1.0000 +0.0000 +0.0000}     {+0.0000 +1.0000 +0.0000}     {+0.0000 +0.0000 +1.0000}     { +X +Y +Z };   # Beam section
#     204                forceBeamColumn     {+1.0000 +0.0000 +0.0000}     {+0.0000 +1.0000 +0.0000}     {+0.0000 +0.0000 +1.0000}     { +X +Y +Z };   # Beam section
#     205                forceBeamColumn     {+1.0000 +0.0000 +0.0000}     {+0.0000 +1.0000 +0.0000}     {+0.0000 +0.0000 +1.0000}     { +X +Y +Z };   # Beam section
#     206                forceBeamColumn     {+0.0000 +1.0000 +0.0000}     {-1.0000 +0.0000 +0.0000}     {+0.0000 -0.0000 +1.0000}     { +Y -X +Z };   # Column section
#     207                forceBeamColumn     {+0.0000 +1.0000 +0.0000}     {-1.0000 +0.0000 +0.0000}     {+0.0000 -0.0000 +1.0000}     { +Y -X +Z };   # Column section
#     208                forceBeamColumn     {+0.0000 +1.0000 +0.0000}     {-1.0000 +0.0000 +0.0000}     {+0.0000 -0.0000 +1.0000}     { +Y -X +Z };   # Column section
#     209                forceBeamColumn     {+0.0000 +1.0000 +0.0000}     {-1.0000 +0.0000 +0.0000}     {+0.0000 -0.0000 +1.0000}     { +Y -X +Z };   # Column section
#     210                forceBeamColumn     {+0.0000 +1.0000 +0.0000}     {-1.0000 +0.0000 +0.0000}     {+0.0000 -0.0000 +1.0000}     { +Y -X +Z };   # Column section
#     211                forceBeamColumn     {+0.0000 +1.0000 +0.0000}     {-1.0000 +0.0000 +0.0000}     {+0.0000 -0.0000 +1.0000}     { +Y -X +Z };   # Column section
#     212                forceBeamColumn     {+0.0000 +1.0000 +0.0000}     {-1.0000 +0.0000 +0.0000}     {+0.0000 -0.0000 +1.0000}     { +Y -X +Z };   # Column section
#     213                forceBeamColumn     {+0.0000 +1.0000 +0.0000}     {-1.0000 +0.0000 +0.0000}     {+0.0000 -0.0000 +1.0000}     { +Y -X +Z };   # Column section
#     214                forceBeamColumn     {+0.0000 +1.0000 +0.0000}     {-1.0000 +0.0000 +0.0000}     {+0.0000 -0.0000 +1.0000}     { +Y -X +Z };   # Column section
#     215                forceBeamColumn     {+0.0000 +1.0000 +0.0000}     {-1.0000 +0.0000 +0.0000}     {+0.0000 -0.0000 +1.0000}     { +Y -X +Z };   # Column section
#     216                forceBeamColumn     {+1.0000 +0.0000 +0.0000}     {+0.0000 +1.0000 +0.0000}     {+0.0000 +0.0000 +1.0000}     { +X +Y +Z };   # Beam section
#     217                forceBeamColumn     {+1.0000 +0.0000 +0.0000}     {+0.0000 +1.0000 +0.0000}     {+0.0000 +0.0000 +1.0000}     { +X +Y +Z };   # Beam section
#     218                forceBeamColumn     {+1.0000 +0.0000 +0.0000}     {+0.0000 +1.0000 +0.0000}     {+0.0000 +0.0000 +1.0000}     { +X +Y +Z };   # Beam section
#     219                forceBeamColumn     {+1.0000 +0.0000 +0.0000}     {+0.0000 +1.0000 +0.0000}     {+0.0000 +0.0000 +1.0000}     { +X +Y +Z };   # Beam section
#     220                forceBeamColumn     {+1.0000 +0.0000 +0.0000}     {+0.0000 +1.0000 +0.0000}     {+0.0000 +0.0000 +1.0000}     { +X +Y +Z };   # Beam section
#     221                forceBeamColumn     {+0.0000 +1.0000 +0.0000}     {-1.0000 +0.0000 +0.0000}     {+0.0000 -0.0000 +1.0000}     { +Y -X +Z };   # Column section
#     222                forceBeamColumn     {+0.0000 +1.0000 +0.0000}     {-1.0000 +0.0000 +0.0000}     {+0.0000 -0.0000 +1.0000}     { +Y -X +Z };   # Column section
#     223                forceBeamColumn     {+0.0000 +1.0000 +0.0000}     {-1.0000 +0.0000 +0.0000}     {+0.0000 -0.0000 +1.0000}     { +Y -X +Z };   # Column section
#     224                forceBeamColumn     {+0.0000 +1.0000 +0.0000}     {-1.0000 +0.0000 +0.0000}     {+0.0000 -0.0000 +1.0000}     { +Y -X +Z };   # Column section
#     225                forceBeamColumn     {+0.0000 +1.0000 +0.0000}     {-1.0000 +0.0000 +0.0000}     {+0.0000 -0.0000 +1.0000}     { +Y -X +Z };   # Column section
#     226                forceBeamColumn     {+1.0000 +0.0000 +0.0000}     {+0.0000 +1.0000 +0.0000}     {+0.0000 +0.0000 +1.0000}     { +X +Y +Z };   # Beam section
#     227                forceBeamColumn     {+1.0000 +0.0000 +0.0000}     {+0.0000 +1.0000 +0.0000}     {+0.0000 +0.0000 +1.0000}     { +X +Y +Z };   # Beam section
#     228                forceBeamColumn     {+1.0000 +0.0000 +0.0000}     {+0.0000 +1.0000 +0.0000}     {+0.0000 +0.0000 +1.0000}     { +X +Y +Z };   # Beam section
#     229                forceBeamColumn     {+1.0000 +0.0000 +0.0000}     {+0.0000 +1.0000 +0.0000}     {+0.0000 +0.0000 +1.0000}     { +X +Y +Z };   # Beam section
#     230                forceBeamColumn     {+1.0000 +0.0000 +0.0000}     {+0.0000 +1.0000 +0.0000}     {+0.0000 +0.0000 +1.0000}     { +X +Y +Z };   # Beam section
#     231                forceBeamColumn     {+0.0000 +1.0000 +0.0000}     {-1.0000 +0.0000 +0.0000}     {+0.0000 -0.0000 +1.0000}     { +Y -X +Z };   # Column section
#     232                forceBeamColumn     {+0.0000 +1.0000 +0.0000}     {-1.0000 +0.0000 +0.0000}     {+0.0000 -0.0000 +1.0000}     { +Y -X +Z };   # Column section
#     233                forceBeamColumn     {+0.0000 +1.0000 +0.0000}     {-1.0000 +0.0000 +0.0000}     {+0.0000 -0.0000 +1.0000}     { +Y -X +Z };   # Column section
#     234                forceBeamColumn     {+0.0000 +1.0000 +0.0000}     {-1.0000 +0.0000 +0.0000}     {+0.0000 -0.0000 +1.0000}     { +Y -X +Z };   # Column section
#     235                forceBeamColumn     {+0.0000 +1.0000 +0.0000}     {-1.0000 +0.0000 +0.0000}     {+0.0000 -0.0000 +1.0000}     { +Y -X +Z };   # Column section
#     236                forceBeamColumn     {+1.0000 +0.0000 +0.0000}     {+0.0000 +1.0000 +0.0000}     {+0.0000 +0.0000 +1.0000}     { +X +Y +Z };   # Beam section
#     237                forceBeamColumn     {+1.0000 +0.0000 +0.0000}     {+0.0000 +1.0000 +0.0000}     {+0.0000 +0.0000 +1.0000}     { +X +Y +Z };   # Beam section
#     238                forceBeamColumn     {+1.0000 +0.0000 +0.0000}     {+0.0000 +1.0000 +0.0000}     {+0.0000 +0.0000 +1.0000}     { +X +Y +Z };   # Beam section
#     239                forceBeamColumn     {+1.0000 +0.0000 +0.0000}     {+0.0000 +1.0000 +0.0000}     {+0.0000 +0.0000 +1.0000}     { +X +Y +Z };   # Beam section
#     240                forceBeamColumn     {+1.0000 +0.0000 +0.0000}     {+0.0000 +1.0000 +0.0000}     {+0.0000 +0.0000 +1.0000}     { +X +Y +Z };   # Beam section
#     241                forceBeamColumn     {+0.0000 +1.0000 +0.0000}     {-1.0000 +0.0000 +0.0000}     {+0.0000 -0.0000 +1.0000}     { +Y -X +Z };   # Column section
#     242                forceBeamColumn     {+0.0000 +1.0000 +0.0000}     {-1.0000 +0.0000 +0.0000}     {+0.0000 -0.0000 +1.0000}     { +Y -X +Z };   # Column section
#     243                forceBeamColumn     {+0.0000 +1.0000 +0.0000}     {-1.0000 +0.0000 +0.0000}     {+0.0000 -0.0000 +1.0000}     { +Y -X +Z };   # Column section
#     244                forceBeamColumn     {+0.0000 +1.0000 +0.0000}     {-1.0000 +0.0000 +0.0000}     {+0.0000 -0.0000 +1.0000}     { +Y -X +Z };   # Column section
#     245                forceBeamColumn     {+0.0000 +1.0000 +0.0000}     {-1.0000 +0.0000 +0.0000}     {+0.0000 -0.0000 +1.0000}     { +Y -X +Z };   # Column section
