#
#   ____ _ ____         ___                   ____                   ___       _             __                
#  / ___(_)  _ \   _   / _ \ _ __   ___ _ __ / ___|  ___  ___  ___  |_ _|_ __ | |_ ___ _ __ / _| __ _  ___ ___ 
# | |  _| | | | |_| |_| | | | '_ \ / _ \ '_ \\___ \ / _ \/ _ \/ __|  | || '_ \| __/ _ \ '__| |_ / _` |/ __/ _ \
# | |_| | | |_| |_   _| |_| | |_) |  __/ | | |___) |  __/  __/\__ \  | || | | | ||  __/ |  |  _| (_| | (_|  __/
#  \____|_|____/  |_|  \___/| .__/ \___|_| |_|____/ \___|\___||___/ |___|_| |_|\__\___|_|  |_|  \__,_|\___\___|
#                           |_|                                                                                
#
# GiD + OpenSees Interface - An Integrated FEA Platform
# Copyright (C) 2016-2023
#
# Lab of R/C and Masonry Structures
# School of Civil Engineering, AUTh
#
# Development Team
#
# T. Kartalis-Kaounis, Dipl. Eng. AUTh, MSc
# V.K. Papanikolaou, Dipl. Eng., MSc DIC, PhD, Asst. Prof. AUTh
#
# Project Contributors
#
# F. Derveni, Dipl. Eng. AUTh, PhD
# G. Ntinolazos, Dipl. Eng. AUTh
# T. Papadopoulos, Dipl. Eng. AUTh, MSc
# V. Protopapadakis, Dipl. Eng. AUTh, MSc
# T. Zachariadis, Dipl. Eng. AUTh, MSc
#
# This program is free software: you can redistribute it and/or modify
# it under the terms of the GNU General Public License as published by
# the Free Software Foundation, either version 3 of the License, or
# (at your option) any later version.
#
# This program is distributed in the hope that it will be useful,
# but WITHOUT ANY WARRANTY; without even the implied warranty of
# MERCHANTABILITY or FITNESS FOR A PARTICULAR PURPOSE.  See the
# GNU General Public License for more details.
#
# You should have received a copy of the GNU General Public License
# along with this program.  If not, see <http://www.gnu.org/licenses/>.

# --------------------------------------------------------------------------------------------------------------
# U N I T S
# --------------------------------------------------------------------------------------------------------------

# Length : m
# Force  : kN
# Moment : kNm
# Stress : kPa
# Mass   : ton

# --------------------------------------------------------------------------------------------------------------
# M A T E R I A L S / S E C T I O N S ( E L E M E N T S )
# --------------------------------------------------------------------------------------------------------------

# Retaining Wall (24)
# Sand (192)
# Clay (462)

# --------------------------------------------------------------------------------------------------------------
#
# M O D E L  D O M A I N  3DOF  (3)
#
# --------------------------------------------------------------------------------------------------------------

model BasicBuilder -ndm 3 -ndf 3

# --------------------------------------------------------------------------------------------------------------
# N O D E S
# --------------------------------------------------------------------------------------------------------------

# node $NodeTag $XCoord $Ycoord $Zcoord

node      1          100           40            0
node      2          100      33.3333            0
node      3          100           40      6.66667
node      4      93.3333           40            0
node      5      93.3333      33.3333            0
node      6          100      33.3333      6.66667
node      7      93.3333           40      6.66667
node      8      93.3333      33.3333      6.66667
node      9      86.6667           40            0
node     10          100           40      13.3333
node     11          100      26.6667            0
node     12      86.6667      33.3333            0
node     13      86.6667           40      6.66667
node     14          100      33.3333      13.3333
node     15      93.3333      26.6667            0
node     16      93.3333           40      13.3333
node     17          100      26.6667      6.66667
node     18      93.3333      33.3333      13.3333
node     19      93.3333      26.6667      6.66667
node     20      86.6667      33.3333      6.66667
# ... 946 like lines cut

# --------------------------------------------------------------------------------------------------------------
# R E S T R A I N T S
# --------------------------------------------------------------------------------------------------------------

# fix $NodeTag x-transl y-transl z-transl

fix      1   0   1   0
fix      2   1   0   0
fix      3   0   1   0
fix      4   0   1   0
fix      5   0   0   1
fix      6   1   0   0
fix      7   0   1   0
fix      9   0   1   0
fix     10   0   1   0
fix     11   1   0   0
fix     12   0   0   1
fix     13   0   1   0
fix     14   1   0   0
fix     15   0   0   1
fix     16   0   1   0
fix     17   1   0   0
fix     21   0   1   0
fix     22   0   0   1
fix     23   1   0   0
fix     24   0   1   0
# ... 406 like lines cut

# --------------------------------------------------------------------------------------------------------------
# S T A N D A R D   B R I C K   E L E M E N T S
# --------------------------------------------------------------------------------------------------------------

# nDMaterial Definition used by stdBrick Elements
# (if they have not already been defined on this model domain)

nDMaterial ElasticIsotropic 359 3.3e+07 0.2            0
nDMaterial ElasticIsotropic 360 5e+07 0.4            0
nDMaterial ElasticIsotropic 361 1.5e+07 0.25            0

# stdBrick element definition: element stdBrick $eleTag $node1 $node2 $node3 $node4 $node5 $node6 $node7 $node8 $matTag <$b1 $b2 $b3>

element stdBrick      1    401    373    425    458    369    329    389    423    361        0        0        0 ; # Clay soil
element stdBrick      2    443    401    458    491    407    369    423    461    361        0        0        0 ; # Clay soil
element stdBrick      3    487    443    491    531    457    407    461    501    361        0        0        0 ; # Clay soil
element stdBrick      4    534    487    531    569    506    457    501    546    361        0        0        0 ; # Clay soil
element stdBrick      5    582    534    569    616    556    506    546    593    361        0        0        0 ; # Clay soil
element stdBrick      6    626    582    616    662    608    556    593    640    361        0        0        0 ; # Clay soil
element stdBrick      7    677    626    662    710    658    608    640    690    361        0        0        0 ; # Clay soil
element stdBrick      8    729    677    710    755    709    658    690    738    361        0        0        0 ; # Clay soil
element stdBrick      9    780    729    755    807    760    709    738    788    361        0        0        0 ; # Clay soil
element stdBrick     10    833    780    807    859    814    760    788    839    361        0        0        0 ; # Clay soil
element stdBrick     11    883    833    859    908    869    814    839    891    361        0        0        0 ; # Clay soil
element stdBrick     12    935    883    908    951    923    869    891    940    361        0        0        0 ; # Clay soil
element stdBrick     13    962    935    951    965    958    923    940    963    361        0        0        0 ; # Clay soil
element stdBrick     14    351    314    373    401    311    268    329    369    361        0        0        0 ; # Clay soil
element stdBrick     15    396    351    401    443    359    311    369    407    361        0        0        0 ; # Clay soil
element stdBrick     16    448    396    443    487    412    359    407    457    361        0        0        0 ; # Clay soil
element stdBrick     17    498    448    487    534    467    412    457    506    361        0        0        0 ; # Clay soil
element stdBrick     18    548    498    534    582    521    467    506    556    361        0        0        0 ; # Clay soil
element stdBrick     19    598    548    582    626    574    521    556    608    361        0        0        0 ; # Clay soil
element stdBrick     20    653    598    626    677    628    574    608    658    361        0        0        0 ; # Clay soil
# ... 136 like lines cut
element stdBrick    157    373    366    422    425    329    323    388    389    359        0        0        0 ; # Concrete C30/37
element stdBrick    158    314    308    366    373    268    258    323    329    359        0        0        0 ; # Concrete C30/37
element stdBrick    159    271    260    308    314    219    211    258    268    359        0        0        0 ; # Concrete C30/37
element stdBrick    160    234    229    260    271    181    173    211    219    359        0        0        0 ; # Concrete C30/37
element stdBrick    161    212    204    229    234    165    162    173    181    359        0        0        0 ; # Concrete C30/37
element stdBrick    162    203    197    204    212    160    151    162    165    359        0        0        0 ; # Concrete C30/37
element stdBrick    163    413    408    462    463    373    366    422    425    359        0        0        0 ; # Concrete C30/37
element stdBrick    164    370    360    408    413    314    308    366    373    359        0        0        0 ; # Concrete C30/37
element stdBrick    165    328    319    360    370    271    260    308    314    359        0        0        0 ; # Concrete C30/37
element stdBrick    166    294    288    319    328    234    229    260    271    359        0        0        0 ; # Concrete C30/37
element stdBrick    167    274    266    288    294    212    204    229    234    359        0        0        0 ; # Concrete C30/37
element stdBrick    168    263    254    266    274    203    197    204    212    359        0        0        0 ; # Concrete C30/37
element stdBrick    169    285    281    344    350    246    242    320    327    359        0        0        0 ; # Concrete C30/37
element stdBrick    170    224    218    281    285    188    179    242    246    359        0        0        0 ; # Concrete C30/37
element stdBrick    171    170    167    218    224    141    138    179    188    359        0        0        0 ; # Concrete C30/37
element stdBrick    172    142    139    167    170    106    103    138    141    359        0        0        0 ; # Concrete C30/37
element stdBrick    173    118    112    139    142     88     83    103    106    359        0        0        0 ; # Concrete C30/37
element stdBrick    174    110    108    112    118     82     77     83     88    359        0        0        0 ; # Concrete C30/37
element stdBrick    175    329    323    388    389    285    281    344    350    359        0        0        0 ; # Concrete C30/37
element stdBrick    176    268    258    323    329    224    218    281    285    359        0        0        0 ; # Concrete C30/37
# ... 4 like lines cut
element stdBrick    181    227    217    295    301    190    178    253    267    360        0        0        0 ; # Sand soil
element stdBrick    182    243    227    301    321    208    190    267    286    360        0        0        0 ; # Sand soil
element stdBrick    183    281    243    321    344    242    208    286    320    360        0        0        0 ; # Sand soil
element stdBrick    184    164    159    217    227    131    121    178    190    360        0        0        0 ; # Sand soil
element stdBrick    185    180    164    227    243    146    131    190    208    360        0        0        0 ; # Sand soil
element stdBrick    186    218    180    243    281    179    146    208    242    360        0        0        0 ; # Sand soil
element stdBrick    187    113    109    159    164     85     75    121    131    360        0        0        0 ; # Sand soil
element stdBrick    188    140    113    164    180    101     85    131    146    360        0        0        0 ; # Sand soil
element stdBrick    189    167    140    180    218    138    101    146    179    360        0        0        0 ; # Sand soil
element stdBrick    190     86     78    109    113     54     48     75     85    360        0        0        0 ; # Sand soil
element stdBrick    191    104     86    113    140     68     54     85    101    360        0        0        0 ; # Sand soil
element stdBrick    192    139    104    140    167    103     68    101    138    360        0        0        0 ; # Sand soil
element stdBrick    193     64     61     78     86     40     33     48     54    360        0        0        0 ; # Sand soil
element stdBrick    194     87     64     86    104     52     40     54     68    360        0        0        0 ; # Sand soil
element stdBrick    195    112     87    104    139     83     52     68    103    360        0        0        0 ; # Sand soil
element stdBrick    196     62     58     61     64     36     25     33     40    360        0        0        0 ; # Sand soil
element stdBrick    197     79     62     64     87     44     36     40     52    360        0        0        0 ; # Sand soil
element stdBrick    198    108     79     87    112     77     44     52     83    360        0        0        0 ; # Sand soil
element stdBrick    199    270    257    336    340    227    217    295    301    360        0        0        0 ; # Sand soil
element stdBrick    200    289    270    340    352    243    227    301    321    360        0        0        0 ; # Sand soil
# ... 172 like lines cut
element stdBrick    373    877    874    899    907    934    931    946    950    361        0        0        0 ; # Clay soil
element stdBrick    374    886    877    907    913    938    934    950    954    361        0        0        0 ; # Clay soil
element stdBrick    375    895    886    913    922    943    938    954    956    361        0        0        0 ; # Clay soil
element stdBrick    376    861    860    874    877    917    916    931    934    361        0        0        0 ; # Clay soil
element stdBrick    377    865    861    877    886    924    917    934    938    361        0        0        0 ; # Clay soil
element stdBrick    378    875    865    886    895    932    924    938    943    361        0        0        0 ; # Clay soil
element stdBrick    379    844    840    860    861    903    897    916    917    361        0        0        0 ; # Clay soil
element stdBrick    380    853    844    861    865    911    903    917    924    361        0        0        0 ; # Clay soil
element stdBrick    381    862    853    865    875    919    911    924    932    361        0        0        0 ; # Clay soil
element stdBrick    382    834    829    840    844    893    890    897    903    361        0        0        0 ; # Clay soil
element stdBrick    383    838    834    844    853    896    893    903    911    361        0        0        0 ; # Clay soil
element stdBrick    384    852    838    853    862    910    896    911    919    361        0        0        0 ; # Clay soil
element stdBrick    385    823    820    829    834    884    880    890    893    361        0        0        0 ; # Clay soil
element stdBrick    386    835    823    834    838    892    884    893    896    361        0        0        0 ; # Clay soil
element stdBrick    387    843    835    838    852    904    892    896    910    361        0        0        0 ; # Clay soil
element stdBrick    388    821    817    820    823    881    878    880    884    361        0        0        0 ; # Clay soil
element stdBrick    389    830    821    823    835    889    881    884    892    361        0        0        0 ; # Clay soil
element stdBrick    390    841    830    835    843    898    889    892    904    361        0        0        0 ; # Clay soil
element stdBrick    391    822    818    845    850    877    874    899    907    361        0        0        0 ; # Clay soil
element stdBrick    392    831    822    850    858    886    877    907    913    361        0        0        0 ; # Clay soil
# ... 286 like lines cut

# --------------------------------------------------------------------------------------------------------------
#
# D O M A I N  C O M M O N S
#
# --------------------------------------------------------------------------------------------------------------

# --------------------------------------------------------------------------------------------------------------
# R E C O R D E R S
# --------------------------------------------------------------------------------------------------------------

recorder Node -file Node_displacements.out -time -nodeRange 1 966 -dof 1 2 3 disp
recorder Node -file Node_rotations.out -time -nodeRange 1 966 -dof 4 5 6 disp
recorder Node -file Node_forceReactions.out -time -nodeRange 1 966 -dof 1 2 3 reaction
recorder Node -file Node_momentReactions.out -time -nodeRange 1 966 -dof 4 5 6 reaction
recorder Element -file stdBrick_force.out -time -eleRange 1 678 forces
recorder Element -file stdBrick_stress.out -time -eleRange 1 678 stresses
recorder Element -file stdBrick_strain.out -time -eleRange 1 678 strains

logFile "Tutorial - Retaining Wall.log"

puts " __   __       __          __                   _       "
puts "/ _ .|  \\ _|_ /  \\ _  _ _ (_  _ _ _  | _ |_ _ _(_ _  _ _"
puts "\\__)||__/  |  \\__/|_)(-| )__)(-(-_)  || )|_(-| | (_|(_(-"
puts "                  |                                     "
puts "                             v2.9.6 with OpenSees v[version]\n"
puts "Analysis summary\n"
puts "Interval 1 : Static - [expr int(1+1)] steps"
puts "\n----------------\n"
set time_start [clock seconds]
puts "Starting analysis...\n"

# --------------------------------------------------------------------------------------------------------------
#
# I N T E R V A L   1
#
# --------------------------------------------------------------------------------------------------------------

puts "Running interval 1"

# recording the initial status

record

# Analysis options

wipeAnalysis
system BandGeneral
numberer RCM
constraints Transformation
integrator LoadControl 1
algorithm Linear
analysis Static
set committedSteps 1
for {set i 1} { $i <= 1 } {incr i 1} {
    set AnalOk [analyze 1]
    if {$AnalOk !=0} {
        break
    } else {
        set committedSteps [expr $committedSteps+1]
    }
}
if {$AnalOk == 0} {
    puts "\nAnalysis completed SUCCESSFULLY"
    puts "Committed steps : $committedSteps\n"
} else {
    puts "\nAnalysis FAILED"
    puts "Committed steps : $committedSteps\n"
}

# --------------------------------------------------------------------------------------------------------------

set hour 0.0
set minute 0.0
set second 0.0
set time_end [clock seconds]
set analysisTime [expr $time_end-$time_start]

puts "Analysis finished.\n"

if {$analysisTime<60} {
    if {$analysisTime==0} {
        puts "Analysis time : less than one second"
    } elseif {$analysisTime==1} {
        puts "Analysis time : 1 second"
    } else {
        puts "Analysis time : $analysisTime seconds"
    }

}  elseif {$analysisTime<3600} {
    set minutes [expr $analysisTime/60]
    set seconds [expr $analysisTime%60]

    if {$minutes==1} {
        puts -nonewline "Analysis time : 1 minute"
    } else {
        puts -nonewline "Analysis time : $minutes minutes"
    }

    if {$seconds==0} {
        puts ""
    } elseif {$seconds==1} {
        puts " and 1 second"
    } else {
        puts " and $seconds seconds"
    }

} else  {
    set hours [expr $analysisTime/3600]
    set minutes [expr ($analysisTime%3600)/60]
    set seconds [expr ($analysisTime%3600)%60]

    if {$hours==1} {
        puts -nonewline "Analysis time : 1 hour"
    } else {
        puts -nonewline "Analysis time : $hours hours"
    }

    if {$minutes==0} {
    } elseif {$minute==1} {
        puts -nonewline ", 1 minute"
    } else {
        puts -nonewline ", $minutes minutes"
    }

    if {$seconds==0} {
        puts ""
    } elseif {$second==1} {
        puts " and 1 second"
    } else {
        puts " and $seconds seconds"
    }
}

# --------------------------------------------------------------------------------------------------------------
#
# M E T A D A T A
#
# --------------------------------------------------------------------------------------------------------------

# Number of nodes
# 966

# Elements 1D
# 0

# Elements 2D
# 0

# Elements 3D
# 678

# stdBrick
# 678
# 1 2 3 4 5 6 7 8 9 10 11 12 13 14 15 16 17 18 19 20 21 22 23 24 25 26 27 28 29 30 31 32 33 34 35 36 37 38 39 40 41 42 43 44 45 46 47 48 49 50 51 52 53 54 55 56 57 58 59 60 61 62 63 64 65 66 67 68 69 70 71 72 73 74 75 76 77 78 79 80 81 82 83 84 85 86 87 88 89 90 91 92 93 94 95 96 97 98 99 100 101 102 103 104 105 106 107 108 109 110 111 112 113 114 115 116 117 118 119 120 121 122 123 124 125 126 12
