#
#   ____ _ ____         ___                   ____                   ___       _             __                
#  / ___(_)  _ \   _   / _ \ _ __   ___ _ __ / ___|  ___  ___  ___  |_ _|_ __ | |_ ___ _ __ / _| __ _  ___ ___ 
# | |  _| | | | |_| |_| | | | '_ \ / _ \ '_ \\___ \ / _ \/ _ \/ __|  | || '_ \| __/ _ \ '__| |_ / _` |/ __/ _ \
# | |_| | | |_| |_   _| |_| | |_) |  __/ | | |___) |  __/  __/\__ \  | || | | | ||  __/ |  |  _| (_| | (_|  __/
#  \____|_|____/  |_|  \___/| .__/ \___|_| |_|____/ \___|\___||___/ |___|_| |_|\__\___|_|  |_|  \__,_|\___\___|
#                           |_|                                                                                
#
# GiD + OpenSees Interface - An Integrated FEA Platform
# Copyright (C) 2016-2023
#
# Lab of R/C and Masonry Structures
# School of Civil Engineering, AUTh
#
# Development Team
#
# T. Kartalis-Kaounis, Dipl. Eng. AUTh, MSc
# V.K. Papanikolaou, Dipl. Eng., MSc DIC, PhD, Asst. Prof. AUTh
#
# Project Contributors
#
# F. Derveni, Dipl. Eng. AUTh, PhD
# G. Ntinolazos, Dipl. Eng. AUTh
# T. Papadopoulos, Dipl. Eng. AUTh, MSc
# V. Protopapadakis, Dipl. Eng. AUTh, MSc
# T. Zachariadis, Dipl. Eng. AUTh, MSc
#
# This program is free software: you can redistribute it and/or modify
# it under the terms of the GNU General Public License as published by
# the Free Software Foundation, either version 3 of the License, or
# (at your option) any later version.
#
# This program is distributed in the hope that it will be useful,
# but WITHOUT ANY WARRANTY; without even the implied warranty of
# MERCHANTABILITY or FITNESS FOR A PARTICULAR PURPOSE.  See the
# GNU General Public License for more details.
#
# You should have received a copy of the GNU General Public License
# along with this program.  If not, see <http://www.gnu.org/licenses/>.

# --------------------------------------------------------------------------------------------------------------
# U N I T S
# --------------------------------------------------------------------------------------------------------------

# Length : m
# Force  : kN
# Moment : kNm
# Stress : kPa
# Mass   : ton

# --------------------------------------------------------------------------------------------------------------
# M A T E R I A L S / S E C T I O N S ( E L E M E N T S )
# --------------------------------------------------------------------------------------------------------------

# Quad (288)
# FBC - Column 50x50 (36)
# FBC - Beam 70x30 (24)

# --------------------------------------------------------------------------------------------------------------
#
# M O D E L  D O M A I N  2DOF  (2)
#
# --------------------------------------------------------------------------------------------------------------

model BasicBuilder -ndm 2 -ndf 2

# --------------------------------------------------------------------------------------------------------------
# N O D E S
# --------------------------------------------------------------------------------------------------------------

# node $NodeTag $XCoord $Ycoord

node     53            4            0
node     54            3            0
node     56            5            0
node     57            2            0
node     58            6            0
node     59            1            0
node     60            7            0
node     61            0            0
node     62            8            0
node     65            9            0
node     66           -1            0
node     67            4           -1
node     68            5           -1
node     69            3           -1
node     70            6           -1
node     71            2           -1
node     72            7           -1
node     73            1           -1
node     74           10            0
node     75           -2            0
# ... 305 like lines cut

# --------------------------------------------------------------------------------------------------------------
# R E S T R A I N T S
# --------------------------------------------------------------------------------------------------------------

# fix $NodeTag x-transl y-transl

fix     92   1   0
fix    110   1   0
fix    125   1   0
fix    143   1   0
fix    165   1   0
fix    189   1   0
fix    213   1   0
fix    220   1   0
fix    239   1   0
fix    240   1   0
fix    259   1   0
fix    266   1   0
fix    274   1   0
fix    292   1   0
fix    295   1   0
fix    314   1   0
fix    317   1   0
fix    328   1   1
fix    329   1   1
fix    330   1   1
# ... 29 like lines cut

# --------------------------------------------------------------------------------------------------------------
# Q U A D   E L E M E N T S
# --------------------------------------------------------------------------------------------------------------

# nDMaterial Definition used by Quad Elements
# (only if they have not already been defined on this model domain)

nDMaterial ElasticIsotropic 259 170000 0.25            0

# Quad elements Definition : element quad $EleTag $Nodei $Nodej Nodek $Nodel $thick $type $MatTag

element quad      1    239    216    200    220        1  PlaneStrain 259        0        0        0        0; # Soil
element quad      2    259    236    216    239        1  PlaneStrain 259        0        0        0        0; # Soil
element quad      3    274    256    236    259        1  PlaneStrain 259        0        0        0        0; # Soil
element quad      4    295    272    256    274        1  PlaneStrain 259        0        0        0        0; # Soil
element quad      5    216    196    181    200        1  PlaneStrain 259        0        0        0        0; # Soil
element quad      6    236    215    196    216        1  PlaneStrain 259        0        0        0        0; # Soil
element quad      7    256    235    215    236        1  PlaneStrain 259        0        0        0        0; # Soil
element quad      8    272    260    235    256        1  PlaneStrain 259        0        0        0        0; # Soil
element quad      9    196    178    161    181        1  PlaneStrain 259        0        0        0        0; # Soil
element quad     10    215    198    178    196        1  PlaneStrain 259        0        0        0        0; # Soil
element quad     11    235    217    198    215        1  PlaneStrain 259        0        0        0        0; # Soil
element quad     12    260    243    217    235        1  PlaneStrain 259        0        0        0        0; # Soil
element quad     13    178    160    141    161        1  PlaneStrain 259        0        0        0        0; # Soil
element quad     14    198    182    160    178        1  PlaneStrain 259        0        0        0        0; # Soil
element quad     15    217    201    182    198        1  PlaneStrain 259        0        0        0        0; # Soil
element quad     16    243    222    201    217        1  PlaneStrain 259        0        0        0        0; # Soil
element quad     17    160    147    131    141        1  PlaneStrain 259        0        0        0        0; # Soil
element quad     18    182    164    147    160        1  PlaneStrain 259        0        0        0        0; # Soil
element quad     19    201    185    164    182        1  PlaneStrain 259        0        0        0        0; # Soil
element quad     20    222    207    185    201        1  PlaneStrain 259        0        0        0        0; # Soil
# ... 268 like lines cut

# --------------------------------------------------------------------------------------------------------------
#
# M O D E L  D O M A I N  3DOF  (3)
#
# --------------------------------------------------------------------------------------------------------------

model BasicBuilder -ndm 2 -ndf 3

# --------------------------------------------------------------------------------------------------------------
# N O D E S
# --------------------------------------------------------------------------------------------------------------

# node $NodeTag $XCoord $Ycoord

node      1            4           12
node      2            3           12
node      3            4           11
node      4            2           12
node      5            4           10
node      6            1           12
node      7            4            9
node      8            0           12
node      9            4            8
node     10            3            8
node     11            0           11
node     12            2            8
node     13            0           10
node     14            0            9
node     15           -1           12
node     16            4            7
node     17            1            8
node     18            0            8
node     19            4            6
node     20           -2           12
# ... 37 like lines cut

# --------------------------------------------------------------------------------------------------------------
# M A S S E S
# --------------------------------------------------------------------------------------------------------------

# Mass Definition : mass $NodeTag $(ndf nodal mass values corresponding to each DOF)

mass      1       20        0        0
mass      8       20        0        0
mass      9       20        0        0
mass     18       20        0        0
mass     27       20        0        0
mass     28       20        0        0
mass     37       20        0        0
mass     38       20        0        0
mass     50       20        0        0

# --------------------------------------------------------------------------------------------------------------
# F O R C E - B A S E D   B E A M - C O L U M N   E L E M E N T S
# --------------------------------------------------------------------------------------------------------------

# Geometric Transformation

geomTransf Linear 1
geomTransf PDelta 2
geomTransf Corotational 3

# Sections Definition used by forceBeamColumn Elements
# (if they have not already been defined on this model domain)

uniaxialMaterial Concrete01 363 -20000 -0.002 -17000 -0.005
uniaxialMaterial Concrete01 362 -20000 -0.002 -17000 -0.0035
uniaxialMaterial ReinforcingSteel 313 500000 575000 2e+08 2e+07 0.005 0.075


section Fiber 360 -GJ 1e10  {

# Create the Core fibers

patch rect 363      8      8  -0.200000  -0.200000   0.200000   0.200000

# Create the Cover fibers

patch rect 362      8      1  -0.200000   0.200000   0.200000   0.250000
patch rect 362      8      1  -0.200000  -0.250000   0.200000  -0.200000
patch rect 362      1      8  -0.250000  -0.200000  -0.200000   0.200000
patch rect 362      1      8   0.200000  -0.200000   0.250000   0.200000
# Corner Cover fibers
patch rect 362      1      1  -0.250000  -0.250000  -0.200000  -0.200000
patch rect 362      1      1  -0.250000   0.200000  -0.200000   0.250000
patch rect 362      1      1   0.200000  -0.250000   0.250000  -0.200000
patch rect 362      1      1   0.200000   0.200000   0.250000   0.250000


# Create the corner bars

layer straight 313  2   0.00031420   0.200000   0.200000  -0.200000   0.200000
layer straight 313  2   0.00031420   0.200000  -0.200000  -0.200000  -0.200000

# Create the middle bars along local y axis

layer straight 313   2   0.00025450   0.066667   0.200000  -0.066667   0.200000
layer straight 313   2   0.00025450   0.066667  -0.200000  -0.066667  -0.200000

# Create the middle bars along local z axis

layer straight 313   2   0.00025450   0.200000   0.066667   0.200000  -0.066667
layer straight 313   2   0.00025450  -0.200000   0.066667  -0.200000  -0.066667
}


section Fiber 361 {

# Create the Core fibers

patch rect 363     11      6  -0.300000  -0.100000   0.300000   0.100000

# Create the Cover fibers

patch rect 362     11      2  -0.300000   0.100000   0.300000   0.150000
patch rect 362     11      2  -0.300000  -0.150000   0.300000  -0.100000
patch rect 362      2      6  -0.350000  -0.100000  -0.300000   0.100000
patch rect 362      2      6   0.300000  -0.100000   0.350000   0.100000
# Corner Cover fibers
patch rect 362      2      2  -0.350000  -0.150000  -0.300000  -0.100000
patch rect 362      2      2  -0.350000   0.100000  -0.300000   0.150000
patch rect 362      2      2   0.300000  -0.150000   0.350000  -0.100000
patch rect 362      2      2   0.300000   0.100000   0.350000   0.150000


# Create the Top bars (face on local y positive dir)

layer straight 313   3    0.00020110   0.300000   0.100000   0.300000  -0.100000

# Create the Bottom bars (face on local y negative dir)

layer straight 313   3   0.00020110  -0.300000   0.100000  -0.300000  -0.100000
}

# Force-Based Beam-Column Element definition

# element forceBeamColumn $eleTag $iNode $jNode $numIntgrPts $secTag $transfTag

element forceBeamColumn    289     94     77  3    360  1   -iter   50   1.00e-04   -mass        0
element forceBeamColumn    290     77     64  3    360  1   -iter   50   1.00e-04   -mass        0
element forceBeamColumn    291     64     55  3    360  1   -iter   50   1.00e-04   -mass        0
element forceBeamColumn    292     55     50  3    360  1   -iter   50   1.00e-04   -mass        0
element forceBeamColumn    293     50     47  3    361  1   -iter   50   1.00e-04   -mass        0
element forceBeamColumn    294     47     44  3    361  1   -iter   50   1.00e-04   -mass        0
element forceBeamColumn    295     44     41  3    361  1   -iter   50   1.00e-04   -mass        0
element forceBeamColumn    296     41     37  3    361  1   -iter   50   1.00e-04   -mass        0
element forceBeamColumn    297     63     51  3    360  1   -iter   50   1.00e-04   -mass        0
element forceBeamColumn    298     51     48  3    360  1   -iter   50   1.00e-04   -mass        0
element forceBeamColumn    299     48     42  3    360  1   -iter   50   1.00e-04   -mass        0
element forceBeamColumn    300     42     37  3    360  1   -iter   50   1.00e-04   -mass        0
element forceBeamColumn    301     37     35  3    361  1   -iter   50   1.00e-04   -mass        0
element forceBeamColumn    302     35     34  3    361  1   -iter   50   1.00e-04   -mass        0
element forceBeamColumn    303     34     31  3    361  1   -iter   50   1.00e-04   -mass        0
element forceBeamColumn    304     31     28  3    361  1   -iter   50   1.00e-04   -mass        0
element forceBeamColumn    305     52     49  3    360  1   -iter   50   1.00e-04   -mass        0
element forceBeamColumn    306     49     43  3    360  1   -iter   50   1.00e-04   -mass        0
element forceBeamColumn    307     43     39  3    360  1   -iter   50   1.00e-04   -mass        0
element forceBeamColumn    308     39     28  3    360  1   -iter   50   1.00e-04   -mass        0
# ... 40 like lines cut

# --------------------------------------------------------------------------------------------------------------
#
# D O M A I N  C O M M O N S
#
# --------------------------------------------------------------------------------------------------------------

# --------------------------------------------------------------------------------------------------------------
# E Q U A L  C O N S T R A I N T S
# --------------------------------------------------------------------------------------------------------------

# Equal Constraint/equalDOF Definition : equalDOF $MasterNode $SlaveNode $DOFs

equalDOF     52     53 1 2   ; # ID : 3
equalDOF     63     61 1 2   ; # ID : 2
equalDOF     94     93 1 2   ; # ID : 1

# --------------------------------------------------------------------------------------------------------------
# R E C O R D E R S
# --------------------------------------------------------------------------------------------------------------

recorder Node -file Node_displacements.out -time -nodeRange 1 382 -dof 1 2 disp
recorder Node -file Node_rotations.out -time -nodeRange 1 382 -dof 3 disp
recorder Node -file Node_forceReactions.out -time -nodeRange 1 382 -dof 1 2 reaction
recorder Node -file Node_momentReactions.out -time -nodeRange 1 382 -dof 3 reaction
recorder Node -file Node_accelerations.out -time -nodeRange 1 382 -dof 1 2 accel
recorder Node -file Node_velocities.out -time -nodeRange 1 382 -dof 1 2 vel
recorder Element -file Quad_force.out -time -ele 1 2 3 4 5 6 7 8 9 10 11 12 13 14 15 16 17 18 19 20 21 22 23 24 25 26 27 28 29 30 31 32 33 34 35 36 37 38 39 40 41 42 43 44 45 46 47 48 49 50 51 52 53 54 55 56 57 58 59 60 61 62 63 64 65 66 67 68 69 70 71 72 73 74 75 76 77 78 79 80 81 82 83 84 85 86 87 88 89 90 91 92 93 94 95 96 97 98 99 100 101 102 103 104 105 106 107 108 109 110 111 112 113 114 115
recorder Element -file Quad_stress.out -time -ele 1 2 3 4 5 6 7 8 9 10 11 12 13 14 15 16 17 18 19 20 21 22 23 24 25 26 27 28 29 30 31 32 33 34 35 36 37 38 39 40 41 42 43 44 45 46 47 48 49 50 51 52 53 54 55 56 57 58 59 60 61 62 63 64 65 66 67 68 69 70 71 72 73 74 75 76 77 78 79 80 81 82 83 84 85 86 87 88 89 90 91 92 93 94 95 96 97 98 99 100 101 102 103 104 105 106 107 108 109 110 111 112 113 114 11
recorder Element -file Quad_strain.out -time -ele 1 2 3 4 5 6 7 8 9 10 11 12 13 14 15 16 17 18 19 20 21 22 23 24 25 26 27 28 29 30 31 32 33 34 35 36 37 38 39 40 41 42 43 44 45 46 47 48 49 50 51 52 53 54 55 56 57 58 59 60 61 62 63 64 65 66 67 68 69 70 71 72 73 74 75 76 77 78 79 80 81 82 83 84 85 86 87 88 89 90 91 92 93 94 95 96 97 98 99 100 101 102 103 104 105 106 107 108 109 110 111 112 113 114 11
recorder Element -file ForceBeamColumn_localForce.out -time -ele 289 290 291 292 293 294 295 296 297 298 299 300 301 302 303 304 305 306 307 308 309 310 311 312 313 314 315 316 317 318 319 320 321 322 323 324 325 326 327 328 329 330 331 332 333 334 335 336 337 338 339 340 341 342 343 344 345 346 347 348 localForce
recorder Element -file ForceBeamColumn_basicDeformation.out -time -ele 289 290 291 292 293 294 295 296 297 298 299 300 301 302 303 304 305 306 307 308 309 310 311 312 313 314 315 316 317 318 319 320 321 322 323 324 325 326 327 328 329 330 331 332 333 334 335 336 337 338 339 340 341 342 343 344 345 346 347 348 basicDeformation
recorder Element -file ForceBeamColumn_plasticDeformation.out -time -ele 289 290 291 292 293 294 295 296 297 298 299 300 301 302 303 304 305 306 307 308 309 310 311 312 313 314 315 316 317 318 319 320 321 322 323 324 325 326 327 328 329 330 331 332 333 334 335 336 337 338 339 340 341 342 343 344 345 346 347 348 plasticDeformation

logFile "Example - Plane Frame on Elastic Soil - Dynamic Analysis.log"

puts " __   __       __          __                   _       "
puts "/ _ .|  \\ _|_ /  \\ _  _ _ (_  _ _ _  | _ |_ _ _(_ _  _ _"
puts "\\__)||__/  |  \\__/|_)(-| )__)(-(-_)  || )|_(-| | (_|(_(-"
puts "                  |                                     "
puts "                             v3.0.0 with OpenSees v[version]\n"
puts "Analysis summary\n"
puts "Interval 1 : Static - [expr int(1+5)] steps"
puts "Interval 2 : Transient - [expr int(1.0 + 40/0.01)] steps x 0.01 s"
puts "\n----------------\n"
set time_start [clock seconds]
puts "Starting analysis...\n"

# --------------------------------------------------------------------------------------------------------------
#
# I N T E R V A L   1
#
# --------------------------------------------------------------------------------------------------------------

puts "Running interval 1"

# Loads - Plain Pattern

pattern Plain 100 Linear {
    eleLoad -ele    293 -type -beamUniform      -15        0
    eleLoad -ele    294 -type -beamUniform      -15        0
    eleLoad -ele    295 -type -beamUniform      -15        0
    eleLoad -ele    296 -type -beamUniform      -15        0
    eleLoad -ele    301 -type -beamUniform      -15        0
    eleLoad -ele    302 -type -beamUniform      -15        0
    eleLoad -ele    303 -type -beamUniform      -15        0
    eleLoad -ele    304 -type -beamUniform      -15        0
    eleLoad -ele    313 -type -beamUniform      -15        0
    eleLoad -ele    314 -type -beamUniform      -15        0
    eleLoad -ele    315 -type -beamUniform      -15        0
    eleLoad -ele    316 -type -beamUniform      -15        0
    eleLoad -ele    321 -type -beamUniform      -15        0
    eleLoad -ele    322 -type -beamUniform      -15        0
    eleLoad -ele    323 -type -beamUniform      -15        0
    eleLoad -ele    324 -type -beamUniform      -15        0
    eleLoad -ele    333 -type -beamUniform      -15        0
    eleLoad -ele    334 -type -beamUniform      -15        0
    eleLoad -ele    335 -type -beamUniform      -15        0
    eleLoad -ele    336 -type -beamUniform      -15        0
# ... 4 like lines cut
}

# recording the initial status

record

# Analysis options

wipeAnalysis
system BandGeneral
numberer RCM
constraints Transformation
integrator LoadControl 0.2
test RelativeEnergyIncr 0.0001 100 2
algorithm Newton
analysis Static

set Lincr 0.200000
set Nsteps 5
set committedSteps 1
set LoadCounter 0

set strIni {}
variable testTypeStatic RelativeEnergyIncr
variable TolStatic 0.0001
variable maxNumIterStatic 100
variable algorithmTypeStatic Newton

for {set i 1} { $i <= $Nsteps } {incr i 1} {
    set t [format "%7.5f" [expr [getTime] + $Lincr]]
    puts -nonewline "(1) $algorithmTypeStatic$strIni LF $t "
    set AnalOk [analyze 1]
    if {$AnalOk !=0} {
        break
    } else {
        set LoadCounter [expr $LoadCounter+1.0]
        set committedSteps [expr $committedSteps+1]
    }
}

if {$AnalOk != 0} {; # if analysis fails, alternative algorithms and substepping is applied
    set firstFail 1
    set AnalOk 0
    set Nk 1
    set returnToInitStepFlag 0
    while {$LoadCounter < $Nsteps && $AnalOk == 0} {
        if {($Nk==2 && $AnalOk==0) || ($Nk==1 && $AnalOk==0)} {
            set Nk 1
            if {$returnToInitStepFlag} {
                puts "\nBack to initial step\n"
                set returnToInitStepFlag 0
            }
            if {$firstFail == 0} { # for the first time only, do not repeat previous failed step
                integrator LoadControl $Lincr; # reset to original increment
                set t [format "%7.5f" [expr [getTime] + $Lincr]]
                puts -nonewline "(1) $algorithmTypeStatic$strIni LF $t "
                set AnalOk [analyze 1]; # zero for convergence
            } else {
                set AnalOk 1
                set firstFail 0
            }
            if {$AnalOk == 0} {
                set LoadCounter [expr $LoadCounter+1.0/$Nk]
                set committedSteps [expr $committedSteps+1]
            }
        }; # end if Nk=1
        # substepping /2
        if {($AnalOk !=0 && $Nk==1) || ($AnalOk==0 && $Nk==4)} {
            set Nk 2; # reduce step size
            set continueFlag 1
            puts "\nInitial step is divided by 2\n"
            set LincrReduced [expr $Lincr/$Nk]
            integrator LoadControl $LincrReduced
            for {set ik 1} {$ik <=$Nk} {incr ik 1} {
                if {$continueFlag==0} {
                    break
                }
                set t [format "%7.5f" [expr [getTime] + $LincrReduced]]
                puts -nonewline "(1) $algorithmTypeStatic$strIni LF $t "
                set AnalOk [analyze 1]; # zero for convergence
                if {$AnalOk == 0} {
                    set LoadCounter [expr $LoadCounter+1.0/$Nk]
                    set committedSteps [expr $committedSteps+1]
                } else {
                    set continueFlag 0
                }
            }
            if {$AnalOk == 0} {
                set returnToInitStepFlag 1
            }
        }; # end if Nk=2
        # substepping /4
        if {($AnalOk !=0 && $Nk==2) || ($AnalOk==0 && $Nk==8)} {
            set Nk 4; # reduce step size
            set continueFlag 1
            puts "\nInitial step is divided by 4\n"
            set LincrReduced [expr $Lincr/$Nk]
            integrator LoadControl $LincrReduced
            for {set ik 1} {$ik <=$Nk} {incr ik 1} {
                if {$continueFlag==0} {
                    break
                }
                set t [format "%7.5f" [expr [getTime] + $LincrReduced]]
                puts -nonewline "(1) $algorithmTypeStatic$strIni LF $t "
                set AnalOk [analyze 1]; # zero for convergence
                if {$AnalOk == 0} {
                    set LoadCounter [expr $LoadCounter+1.0/$Nk]
                    set committedSteps [expr $committedSteps+1]
                } else {
                    set continueFlag 0
                }
            }
            if {$AnalOk == 0} {
                set returnToInitStepFlag 1
            }
        }; # end if Nk=4
        # substepping /8
        if {$AnalOk !=0 && $Nk==4 || ($Nk == 16 && $AnalOk == 0)} {
            set Nk 8; # reduce step size
            set continueFlag 1
            puts "\nInitial step is divided by 8\n"
            set LincrReduced [expr $Lincr/$Nk]
            integrator LoadControl $LincrReduced
            for {set ik 1} {$ik <=$Nk} {incr ik 1} {
                if {$continueFlag==0} {
                    break
                }
                set t [format "%7.5f" [expr [getTime] + $LincrReduced]]
                puts -nonewline "(1) $algorithmTypeStatic$strIni LF $t "
                set AnalOk [analyze 1]; # zero for convergence
                if {$AnalOk == 0} {
                    set LoadCounter [expr $LoadCounter+1.0/$Nk]
                    set committedSteps [expr $committedSteps+1]
                } else {
                    set continueFlag 0
                }
            }
            if {$AnalOk == 0} {
                set returnToInitStepFlag 1
            }
        }; # end if Nk=8
        # substepping /16
        if {($Nk == 8 && $AnalOk!=0)} {
            set Nk 16; # reduce step size
            set continueFlag 1
            puts "\nInitial step is divided by 16\n"
            set LincrReduced [expr $Lincr/$Nk]
            integrator LoadControl $LincrReduced
            for {set ik 1} {$ik <=$Nk} {incr ik 1} {
                if {$continueFlag==0} {
                    break
                }
                set t [format "%7.5f" [expr [getTime] + $LincrReduced]]
                puts -nonewline "(1) $algorithmTypeStatic$strIni LF $t "
                set AnalOk [analyze 1]; # zero for convergence
                if {$AnalOk == 0} {
                    set LoadCounter [expr $LoadCounter+1.0/$Nk]
                    set committedSteps [expr $committedSteps+1]
                } else {
                    set continueFlag 0
                }
            }
            if {$AnalOk == 0} {
                set returnToInitStepFlag 1
            }
        }; # end if Nk=16
    }; # end while loop
}; # end if AnalOk

if {$AnalOk == 0} {
    puts "\nAnalysis completed SUCCESSFULLY"
    puts "Committed steps : $committedSteps\n"
} else {
    puts "\nAnalysis FAILED"
    puts "Committed steps : $committedSteps\n"
}

# all previously defined patterns are constant for so on.

loadConst -time 0.0

# --------------------------------------------------------------------------------------------------------------
#
# I N T E R V A L   2
#
# --------------------------------------------------------------------------------------------------------------

puts "Running interval 2"

# recording the initial status

record

# Analysis options

wipeAnalysis
system BandGeneral
numberer RCM
constraints Transformation
integrator Newmark 0.5 0.25
test RelativeEnergyIncr 0.0001 500 2
algorithm ModifiedNewton -initial
analysis Transient

# Loads - Uniform Excitation

set iGMdirection 1
set DtAnalysis 0.01
set TmaxAnalysis 40

proc LoadRecordTimeandValues {filename recordValues recordTimes skiplines tcol vcol} {
    set currentLine 0
    upvar $recordValues RecValues
    upvar $recordTimes RecTimes
    # clear lists
    set RecValues " "
    set RecTimes " "

    if [catch {open $filename r} inFileID] {
        puts stderr "Cannot open $filename for reading"
    } else {
        foreach line [split [read $inFileID] \n] {
            set currentLine [expr $currentLine+1]
            if {[llength $line] == 0 || $line == " " || $currentLine<= $skiplines} {
            continue
            } else {
                set valueColumnIndex [expr $vcol-1]
                set timeColumnIndex [expr $tcol-1]
                lappend RecValues [lindex [join $line " "] $valueColumnIndex ]
                lappend RecTimes [lindex [join $line " "] $timeColumnIndex ]
            }
        }
        close $inFileID
    }
}

set iGMfile "{../Records/Loma_Prieta.dat} "
set iGMfact "{9.810} "
set iGMFormat "{TimeValue} "
set iGMType "{-accel} "
set iGMdt "{0} "
set iGMskip "{6} "
set iGMvalCol "{2} "
set iGMtimeCol "{1} "
set IDGMLoadPatternTag 250

foreach GMdirection $iGMdirection GMfile $iGMfile GMfact $iGMfact GMtype $iGMType GMformat $iGMFormat GMdt $iGMdt GMskip $iGMskip GMvalCol $iGMvalCol GMtimeCol $iGMtimeCol {
    incr IDGMLoadPatternTag
    if {$GMformat=="PEER"} {
        ReadPEERfile $GMfile recordValues dt
            if {$GMtype == "-accel"} {
            set AccelSeries "Path -dt $dt -values {$recordValues} -factor $GMfact"
            pattern UniformExcitation $IDGMLoadPatternTag $GMdirection -accel $AccelSeries
        } elseif {$GMtype == "-disp"} {
            set DispSeries "Path -dt $dt -values {$recordValues} -factor $GMfact"
            pattern UniformExcitation $IDGMLoadPatternTag $GMdirection -disp $DispSeries
        }

    } elseif {$GMformat == "Value"} {
        LoadRecordValues $GMfile recordValues $GMskip
        set dt $GMdt
        if {$GMtype == "-accel"} {
            set AccelSeries "Path -dt $dt -values {$recordValues} -factor $GMfact"
            pattern UniformExcitation $IDGMLoadPatternTag $GMdirection -accel $AccelSeries
        } elseif {$GMtype == "-disp"} {
            set DispSeries "Path -dt $dt -values {$recordValues} -factor $GMfact"
            pattern UniformExcitation $IDGMLoadPatternTag $GMdirection -disp $DispSeries
        }
    } elseif {$GMformat == "TimeValue"} {
        LoadRecordTimeandValues $GMfile recordValues recordTimes $GMskip $GMtimeCol $GMvalCol
        if {$GMtype == "-accel"} {
                set AccelSeries "Path -time {$recordTimes} -values {$recordValues} -factor $GMfact"
                pattern UniformExcitation $IDGMLoadPatternTag $GMdirection -accel $AccelSeries
        } elseif {$GMtype == "-disp"} {
                set DispSeries "Path -time {$recordTimes} -values {$recordValues} -factor $GMfact"
                pattern UniformExcitation $IDGMLoadPatternTag $GMdirection -disp $DispSeries
        }
    }
}

set committedSteps 1
set Nsteps [expr int($TmaxAnalysis/$DtAnalysis)]

set strIni {}
variable testTypeDynamic RelativeEnergyIncr
variable TolDynamic 0.0001
variable maxNumIterDynamic 500
variable algorithmTypeDynamic ModifiedNewton
set strIni "/Ini"

for {set i 1} { $i <= $Nsteps } {incr i 1} {
    set t [format "%7.5f" [expr [getTime] + $DtAnalysis]]
    puts -nonewline "(2) $algorithmTypeDynamic$strIni Time $t "
    set AnalOk [analyze 1 $DtAnalysis]; # perform analysis - returns 0 if analysis was successful
    if {$AnalOk == 0} {
        set committedSteps [expr $committedSteps+1]
    } else {
        break
    }
}

if {$AnalOk != 0} {; # if analysis fails, alternative algorithms and substepping is applied
    set firstFail 1
    set AnalOk 0
    set controlTime [getTime]
    set Nk 1; # dt = dt/Nk
    set returnToInitStepFlag 0
    while {$controlTime < $TmaxAnalysis && $AnalOk == 0} {
        if { ($Nk == 1 && $AnalOk == 0) || ($Nk == 2 && $AnalOk == 0) } {
            set Nk 1
            if {$returnToInitStepFlag} {
                puts "\nBack to initial step\n"
                set returnToInitStepFlag 0
            }
            if {$firstFail == 0} {; # for the first time only, do not repeat previous failed step
                set t [format "%7.5f" [expr [getTime] + $DtAnalysis]]
                puts -nonewline "(2) $algorithmTypeDynamic$strIni Time $t "
                set AnalOk [analyze 1 $DtAnalysis]
            } else {
                set AnalOk 1
                set firstFail 0
            }
            if {$AnalOk == 0} {
                set committedSteps [expr $committedSteps+1]
            }
        }; # end if Nk=1
        # substepping /2
        if {($Nk == 1 && $AnalOk!=0) || ($Nk == 4 && $AnalOk==0)} {
            set Nk 2.0
            set continueFlag 1
            puts "\nInitial step is divided by 2\n"
            set currTime1 [getTime]
            set curStep [expr int($currTime1/$DtAnalysis)]
            set remStep1 [expr int(($Nsteps-$curStep)*2.0)]
            set ReducedDtAnalysis [expr $DtAnalysis/2.0]
            for {set ik 1} {$ik <= $Nk} {incr ik 1} {
                if {$continueFlag==0} {
                    break
                }
                set t [format "%7.5f" [expr [getTime] + $ReducedDtAnalysis]]
                puts -nonewline "(2) $algorithmTypeDynamic$strIni Time $t "
                set AnalOk [analyze 1 $ReducedDtAnalysis]
                if {$AnalOk == 0} {
                    set committedSteps [expr $committedSteps+1]
                } else {
                    set continueFlag 0
                }
            }
            if {$AnalOk == 0} {
                set returnToInitStepFlag 1
            }
        }; # end if Nk=2
        # substepping /4
        if {($Nk == 2 && $AnalOk!=0) || ($Nk == 8 && $AnalOk == 0)} {
            set Nk 4.0
            set continueFlag 1
            puts "\nInitial step is divided by 4\n"
            set currTime2 [getTime]
            set curStep [expr ($currTime2-$currTime1)/$ReducedDtAnalysis]
            set remStep2 [expr int(($remStep1-$curStep)*2.0)]
            set ReducedDtAnalysis [expr $ReducedDtAnalysis/2.0]
            for {set ik 1} {$ik <= $Nk} {incr ik 1} {
                if {$continueFlag==0} {
                    break
                }
                set t [format "%7.5f" [expr [getTime] + $ReducedDtAnalysis]]
                puts -nonewline "(2) $algorithmTypeDynamic$strIni Time $t "
                set AnalOk [analyze 1 $ReducedDtAnalysis]
                if {$AnalOk == 0} {
                    set committedSteps [expr $committedSteps+1]
                } else {
                    set continueFlag 0
                }
            }
            if {$AnalOk == 0} {
                set returnToInitStepFlag 1
            }
        }; # end if Nk=4
        # substepping /8
        if {($Nk == 4 && $AnalOk!=0) || ($Nk == 16 && $AnalOk == 0)} {
            set Nk 8.0
            set continueFlag 1
            puts "\nInitial step is divided by 8\n"
            set currTime3 [getTime]
            set curStep [expr ($currTime3-$currTime2)/$ReducedDtAnalysis]
            set remStep3 [expr int(($remStep2-$curStep)*2.0)]
            set ReducedDtAnalysis [expr $ReducedDtAnalysis/2.0]
            for {set ik 1} {$ik <= $Nk} {incr ik 1} {
                if {$continueFlag==0} {
                    break
                }
                set t [format "%7.5f" [expr [getTime] + $ReducedDtAnalysis]]
                puts -nonewline "(2) $algorithmTypeDynamic$strIni Time $t "
                set AnalOk [analyze 1 $ReducedDtAnalysis]
                if {$AnalOk == 0} {
                    set committedSteps [expr $committedSteps+1]
                } else {
                    set continueFlag 0
                }
            }
            if {$AnalOk == 0} {
                set returnToInitStepFlag 1
            }
        }; # end if Nk=8
        # substepping /16
        if {($Nk == 8 && $AnalOk!=0)} {
            set Nk 16.0
            set continueFlag 1
            puts "\nInitial step is divided by 16\n"
            set currTime4 [getTime]
            set curStep [expr ($currTime4-$currTime3)/$ReducedDtAnalysis]
            set remStep4 [expr int(($remStep3-$curStep)*2.0)]
            set ReducedDtAnalysis [expr $ReducedDtAnalysis/2.0]
            for {set ik 1} {$ik <= $Nk} {incr ik 1} {
                if {$continueFlag==0} {
                    break
                }
                set t [format "%7.5f" [expr [getTime] + $ReducedDtAnalysis]]
                puts -nonewline "(2) $algorithmTypeDynamic$strIni Time $t "
                set AnalOk [analyze 1 $ReducedDtAnalysis]
                if {$AnalOk == 0} {
                    set committedSteps [expr $committedSteps+1]
                } else {
                    set continueFlag 0
                }
            }
            if {$AnalOk == 0} {
                set returnToInitStepFlag 1
            }
        }; # end if Nk=16
        set controlTime [getTime]
    }
}

if {$AnalOk == 0} {
    puts "\nAnalysis completed SUCCESSFULLY"
    puts "Committed steps : $committedSteps\n"
} else {
    puts "\nAnalysis FAILED"
    puts "Committed steps : $committedSteps\n"
}

# --------------------------------------------------------------------------------------------------------------

set hour 0.0
set minute 0.0
set second 0.0
set time_end [clock seconds]
set analysisTime [expr $time_end-$time_start]

puts "Analysis finished.\n"

if {$analysisTime<60} {
    if {$analysisTime==0} {
        puts "Analysis time : less than one second"
    } elseif {$analysisTime==1} {
        puts "Analysis time : 1 second"
    } else {
        puts "Analysis time : $analysisTime seconds"
    }

}  elseif {$analysisTime<3600} {
    set minutes [expr $analysisTime/60]
    set seconds [expr $analysisTime%60]

    if {$minutes==1} {
        puts -nonewline "Analysis time : 1 minute"
    } else {
        puts -nonewline "Analysis time : $minutes minutes"
    }

    if {$seconds==0} {
        puts ""
    } elseif {$seconds==1} {
        puts " and 1 second"
    } else {
        puts " and $seconds seconds"
    }

} else  {
    set hours [expr $analysisTime/3600]
    set minutes [expr ($analysisTime%3600)/60]
    set seconds [expr ($analysisTime%3600)%60]

    if {$hours==1} {
        puts -nonewline "Analysis time : 1 hour"
    } else {
        puts -nonewline "Analysis time : $hours hours"
    }

    if {$minutes==0} {
    } elseif {$minute==1} {
        puts -nonewline ", 1 minute"
    } else {
        puts -nonewline ", $minutes minutes"
    }

    if {$seconds==0} {
        puts ""
    } elseif {$second==1} {
        puts " and 1 second"
    } else {
        puts " and $seconds seconds"
    }
}

# --------------------------------------------------------------------------------------------------------------
#
# M E T A D A T A
#
# --------------------------------------------------------------------------------------------------------------

# Number of nodes
# 382

# Elements 1D
# 60

# Elements 2D
# 288

# Elements 3D
# 0

# ForceBeamColumn
# 60
# 289 290 291 292 293 294 295 296 297 298 299 300 301 302 303 304 305 306 307 308 309 310 311 312 313 314 315 316 317 318 319 320 321 322 323 324 325 326 327 328 329 330 331 332 333 334 335 336 337 338 339 340 341 342 343 344 345 346 347 348

# Quad
# 288
# 1 2 3 4 5 6 7 8 9 10 11 12 13 14 15 16 17 18 19 20 21 22 23 24 25 26 27 28 29 30 31 32 33 34 35 36 37 38 39 40 41 42 43 44 45 46 47 48 49 50 51 52 53 54 55 56 57 58 59 60 61 62 63 64 65 66 67 68 69 70 71 72 73 74 75 76 77 78 79 80 81 82 83 84 85 86 87 88 89 90 91 92 93 94 95 96 97 98 99 100 101 102 103 104 105 106 107 108 109 110 111 112 113 114 115 116 117 118 119 120 121 122 123 124 125 126 12

# -------------------------------------------------------------------------------------------------------------------------------------------------------------------------
#
# F R A M E   L O C A L   A X E S   O R I E N T A T I O N
#
# -------------------------------------------------------------------------------------------------------------------------------------------------------------------------
#
#      ID                           Type                       Local-x                       Local-y                       Local-z          Literal      Material / Section
#
#     289                forceBeamColumn     {+0.0000 +1.0000 +0.0000}     {-1.0000 +0.0000 +0.0000}     {+0.0000 -0.0000 +1.0000}     { +Y -X +Z };   # Fiber - Column
#     290                forceBeamColumn     {+0.0000 +1.0000 +0.0000}     {-1.0000 +0.0000 +0.0000}     {+0.0000 -0.0000 +1.0000}     { +Y -X +Z };   # Fiber - Column
#     291                forceBeamColumn     {+0.0000 +1.0000 +0.0000}     {-1.0000 +0.0000 +0.0000}     {+0.0000 -0.0000 +1.0000}     { +Y -X +Z };   # Fiber - Column
#     292                forceBeamColumn     {+0.0000 +1.0000 +0.0000}     {-1.0000 +0.0000 +0.0000}     {+0.0000 -0.0000 +1.0000}     { +Y -X +Z };   # Fiber - Column
#     293                forceBeamColumn     {+1.0000 +0.0000 +0.0000}     {+0.0000 +1.0000 +0.0000}     {+0.0000 +0.0000 +1.0000}     { +X +Y +Z };   # Fiber - Beam
#     294                forceBeamColumn     {+1.0000 +0.0000 +0.0000}     {+0.0000 +1.0000 +0.0000}     {+0.0000 +0.0000 +1.0000}     { +X +Y +Z };   # Fiber - Beam
#     295                forceBeamColumn     {+1.0000 +0.0000 +0.0000}     {+0.0000 +1.0000 +0.0000}     {+0.0000 +0.0000 +1.0000}     { +X +Y +Z };   # Fiber - Beam
#     296                forceBeamColumn     {+1.0000 +0.0000 +0.0000}     {+0.0000 +1.0000 +0.0000}     {+0.0000 +0.0000 +1.0000}     { +X +Y +Z };   # Fiber - Beam
#     297                forceBeamColumn     {+0.0000 +1.0000 +0.0000}     {-1.0000 +0.0000 +0.0000}     {+0.0000 -0.0000 +1.0000}     { +Y -X +Z };   # Fiber - Column
#     298                forceBeamColumn     {+0.0000 +1.0000 +0.0000}     {-1.0000 +0.0000 +0.0000}     {+0.0000 -0.0000 +1.0000}     { +Y -X +Z };   # Fiber - Column
#     299                forceBeamColumn     {+0.0000 +1.0000 +0.0000}     {-1.0000 +0.0000 +0.0000}     {+0.0000 -0.0000 +1.0000}     { +Y -X +Z };   # Fiber - Column
#     300                forceBeamColumn     {+0.0000 +1.0000 +0.0000}     {-1.0000 +0.0000 +0.0000}     {+0.0000 -0.0000 +1.0000}     { +Y -X +Z };   # Fiber - Column
#     301                forceBeamColumn     {+1.0000 +0.0000 +0.0000}     {+0.0000 +1.0000 +0.0000}     {+0.0000 +0.0000 +1.0000}     { +X +Y +Z };   # Fiber - Beam
#     302                forceBeamColumn     {+1.0000 +0.0000 +0.0000}     {+0.0000 +1.0000 +0.0000}     {+0.0000 +0.0000 +1.0000}     { +X +Y +Z };   # Fiber - Beam
#     303                forceBeamColumn     {+1.0000 +0.0000 +0.0000}     {+0.0000 +1.0000 +0.0000}     {+0.0000 +0.0000 +1.0000}     { +X +Y +Z };   # Fiber - Beam
#     304                forceBeamColumn     {+1.0000 +0.0000 +0.0000}     {+0.0000 +1.0000 +0.0000}     {+0.0000 +0.0000 +1.0000}     { +X +Y +Z };   # Fiber - Beam
#     305                forceBeamColumn     {+0.0000 +1.0000 +0.0000}     {-1.0000 +0.0000 +0.0000}     {+0.0000 -0.0000 +1.0000}     { +Y -X +Z };   # Fiber - Column
#     306                forceBeamColumn     {+0.0000 +1.0000 +0.0000}     {-1.0000 +0.0000 +0.0000}     {+0.0000 -0.0000 +1.0000}     { +Y -X +Z };   # Fiber - Column
#     307                forceBeamColumn     {+0.0000 +1.0000 +0.0000}     {-1.0000 +0.0000 +0.0000}     {+0.0000 -0.0000 +1.0000}     { +Y -X +Z };   # Fiber - Column
#     308                forceBeamColumn     {+0.0000 +1.0000 +0.0000}     {-1.0000 +0.0000 +0.0000}     {+0.0000 -0.0000 +1.0000}     { +Y -X +Z };   # Fiber - Column
#     309                forceBeamColumn     {+0.0000 +1.0000 +0.0000}     {-1.0000 +0.0000 +0.0000}     {+0.0000 -0.0000 +1.0000}     { +Y -X +Z };   # Fiber - Column
#     310                forceBeamColumn     {+0.0000 +1.0000 +0.0000}     {-1.0000 +0.0000 +0.0000}     {+0.0000 -0.0000 +1.0000}     { +Y -X +Z };   # Fiber - Column
#     311                forceBeamColumn     {+0.0000 +1.0000 +0.0000}     {-1.0000 +0.0000 +0.0000}     {+0.0000 -0.0000 +1.0000}     { +Y -X +Z };   # Fiber - Column
#     312                forceBeamColumn     {+0.0000 +1.0000 +0.0000}     {-1.0000 +0.0000 +0.0000}     {+0.0000 -0.0000 +1.0000}     { +Y -X +Z };   # Fiber - Column
#     313                forceBeamColumn     {+1.0000 +0.0000 +0.0000}     {+0.0000 +1.0000 +0.0000}     {+0.0000 +0.0000 +1.0000}     { +X +Y +Z };   # Fiber - Beam
#     314                forceBeamColumn     {+1.0000 +0.0000 +0.0000}     {+0.0000 +1.0000 +0.0000}     {+0.0000 +0.0000 +1.0000}     { +X +Y +Z };   # Fiber - Beam
#     315                forceBeamColumn     {+1.0000 +0.0000 +0.0000}     {+0.0000 +1.0000 +0.0000}     {+0.0000 +0.0000 +1.0000}     { +X +Y +Z };   # Fiber - Beam
#     316                forceBeamColumn     {+1.0000 +0.0000 +0.0000}     {+0.0000 +1.0000 +0.0000}     {+0.0000 +0.0000 +1.0000}     { +X +Y +Z };   # Fiber - Beam
#     317                forceBeamColumn     {+0.0000 +1.0000 +0.0000}     {-1.0000 +0.0000 +0.0000}     {+0.0000 -0.0000 +1.0000}     { +Y -X +Z };   # Fiber - Column
#     318                forceBeamColumn     {+0.0000 +1.0000 +0.0000}     {-1.0000 +0.0000 +0.0000}     {+0.0000 -0.0000 +1.0000}     { +Y -X +Z };   # Fiber - Column
#     319                forceBeamColumn     {+0.0000 +1.0000 +0.0000}     {-1.0000 +0.0000 +0.0000}     {+0.0000 -0.0000 +1.0000}     { +Y -X +Z };   # Fiber - Column
#     320                forceBeamColumn     {+0.0000 +1.0000 +0.0000}     {-1.0000 +0.0000 +0.0000}     {+0.0000 -0.0000 +1.0000}     { +Y -X +Z };   # Fiber - Column
#     321                forceBeamColumn     {+1.0000 +0.0000 +0.0000}     {+0.0000 +1.0000 +0.0000}     {+0.0000 +0.0000 +1.0000}     { +X +Y +Z };   # Fiber - Beam
#     322                forceBeamColumn     {+1.0000 +0.0000 +0.0000}     {+0.0000 +1.0000 +0.0000}     {+0.0000 +0.0000 +1.0000}     { +X +Y +Z };   # Fiber - Beam
#     323                forceBeamColumn     {+1.0000 +0.0000 +0.0000}     {+0.0000 +1.0000 +0.0000}     {+0.0000 +0.0000 +1.0000}     { +X +Y +Z };   # Fiber - Beam
#     324                forceBeamColumn     {+1.0000 +0.0000 +0.0000}     {+0.0000 +1.0000 +0.0000}     {+0.0000 +0.0000 +1.0000}     { +X +Y +Z };   # Fiber - Beam
#     325                forceBeamColumn     {+0.0000 +1.0000 +0.0000}     {-1.0000 +0.0000 +0.0000}     {+0.0000 -0.0000 +1.0000}     { +Y -X +Z };   # Fiber - Column
#     326                forceBeamColumn     {+0.0000 +1.0000 +0.0000}     {-1.0000 +0.0000 +0.0000}     {+0.0000 -0.0000 +1.0000}     { +Y -X +Z };   # Fiber - Column
#     327                forceBeamColumn     {+0.0000 +1.0000 +0.0000}     {-1.0000 +0.0000 +0.0000}     {+0.0000 -0.0000 +1.0000}     { +Y -X +Z };   # Fiber - Column
#     328                forceBeamColumn     {+0.0000 +1.0000 +0.0000}     {-1.0000 +0.0000 +0.0000}     {+0.0000 -0.0000 +1.0000}     { +Y -X +Z };   # Fiber - Column
#     329                forceBeamColumn     {+0.0000 +1.0000 +0.0000}     {-1.0000 +0.0000 +0.0000}     {+0.0000 -0.0000 +1.0000}     { +Y -X +Z };   # Fiber - Column
#     330                forceBeamColumn     {+0.0000 +1.0000 +0.0000}     {-1.0000 +0.0000 +0.0000}     {+0.0000 -0.0000 +1.0000}     { +Y -X +Z };   # Fiber - Column
#     331                forceBeamColumn     {+0.0000 +1.0000 +0.0000}     {-1.0000 +0.0000 +0.0000}     {+0.0000 -0.0000 +1.0000}     { +Y -X +Z };   # Fiber - Column
#     332                forceBeamColumn     {+0.0000 +1.0000 +0.0000}     {-1.0000 +0.0000 +0.0000}     {+0.0000 -0.0000 +1.0000}     { +Y -X +Z };   # Fiber - Column
#     333                forceBeamColumn     {+1.0000 +0.0000 +0.0000}     {+0.0000 +1.0000 +0.0000}     {+0.0000 +0.0000 +1.0000}     { +X +Y +Z };   # Fiber - Beam
#     334                forceBeamColumn     {+1.0000 +0.0000 +0.0000}     {+0.0000 +1.0000 +0.0000}     {+0.0000 +0.0000 +1.0000}     { +X +Y +Z };   # Fiber - Beam
#     335                forceBeamColumn     {+1.0000 +0.0000 +0.0000}     {+0.0000 +1.0000 +0.0000}     {+0.0000 +0.0000 +1.0000}     { +X +Y +Z };   # Fiber - Beam
#     336                forceBeamColumn     {+1.0000 +0.0000 +0.0000}     {+0.0000 +1.0000 +0.0000}     {+0.0000 +0.0000 +1.0000}     { +X +Y +Z };   # Fiber - Beam
#     337                forceBeamColumn     {+1.0000 +0.0000 +0.0000}     {+0.0000 +1.0000 +0.0000}     {+0.0000 +0.0000 +1.0000}     { +X +Y +Z };   # Fiber - Beam
#     338                forceBeamColumn     {+1.0000 +0.0000 +0.0000}     {+0.0000 +1.0000 +0.0000}     {+0.0000 +0.0000 +1.0000}     { +X +Y +Z };   # Fiber - Beam
#     339                forceBeamColumn     {+1.0000 +0.0000 +0.0000}     {+0.0000 +1.0000 +0.0000}     {+0.0000 +0.0000 +1.0000}     { +X +Y +Z };   # Fiber - Beam
#     340                forceBeamColumn     {+1.0000 +0.0000 +0.0000}     {+0.0000 +1.0000 +0.0000}     {+0.0000 +0.0000 +1.0000}     { +X +Y +Z };   # Fiber - Beam
#     341                forceBeamColumn     {+0.0000 +1.0000 +0.0000}     {-1.0000 +0.0000 +0.0000}     {+0.0000 -0.0000 +1.0000}     { +Y -X +Z };   # Fiber - Column
#     342                forceBeamColumn     {+0.0000 +1.0000 +0.0000}     {-1.0000 +0.0000 +0.0000}     {+0.0000 -0.0000 +1.0000}     { +Y -X +Z };   # Fiber - Column
#     343                forceBeamColumn     {+0.0000 +1.0000 +0.0000}     {-1.0000 +0.0000 +0.0000}     {+0.0000 -0.0000 +1.0000}     { +Y -X +Z };   # Fiber - Column
#     344                forceBeamColumn     {+0.0000 +1.0000 +0.0000}     {-1.0000 +0.0000 +0.0000}     {+0.0000 -0.0000 +1.0000}     { +Y -X +Z };   # Fiber - Column
#     345                forceBeamColumn     {+0.0000 +1.0000 +0.0000}     {-1.0000 +0.0000 +0.0000}     {+0.0000 -0.0000 +1.0000}     { +Y -X +Z };   # Fiber - Column
#     346                forceBeamColumn     {+0.0000 +1.0000 +0.0000}     {-1.0000 +0.0000 +0.0000}     {+0.0000 -0.0000 +1.0000}     { +Y -X +Z };   # Fiber - Column
#     347                forceBeamColumn     {+0.0000 +1.0000 +0.0000}     {-1.0000 +0.0000 +0.0000}     {+0.0000 -0.0000 +1.0000}     { +Y -X +Z };   # Fiber - Column
#     348                forceBeamColumn     {+0.0000 +1.0000 +0.0000}     {-1.0000 +0.0000 +0.0000}     {+0.0000 -0.0000 +1.0000}     { +Y -X +Z };   # Fiber - Column
