#
#   ____ _ ____         ___                   ____                   ___       _             __                
#  / ___(_)  _ \   _   / _ \ _ __   ___ _ __ / ___|  ___  ___  ___  |_ _|_ __ | |_ ___ _ __ / _| __ _  ___ ___ 
# | |  _| | | | |_| |_| | | | '_ \ / _ \ '_ \\___ \ / _ \/ _ \/ __|  | || '_ \| __/ _ \ '__| |_ / _` |/ __/ _ \
# | |_| | | |_| |_   _| |_| | |_) |  __/ | | |___) |  __/  __/\__ \  | || | | | ||  __/ |  |  _| (_| | (_|  __/
#  \____|_|____/  |_|  \___/| .__/ \___|_| |_|____/ \___|\___||___/ |___|_| |_|\__\___|_|  |_|  \__,_|\___\___|
#                           |_|                                                                                
#
# GiD + OpenSees Interface - An Integrated FEA Platform
# Copyright (C) 2016-2023
#
# Lab of R/C and Masonry Structures
# School of Civil Engineering, AUTh
#
# Development Team
#
# T. Kartalis-Kaounis, Dipl. Eng. AUTh, MSc
# V.K. Papanikolaou, Dipl. Eng., MSc DIC, PhD, Asst. Prof. AUTh
#
# Project Contributors
#
# F. Derveni, Dipl. Eng. AUTh, PhD
# G. Ntinolazos, Dipl. Eng. AUTh
# T. Papadopoulos, Dipl. Eng. AUTh, MSc
# V. Protopapadakis, Dipl. Eng. AUTh, MSc
# T. Zachariadis, Dipl. Eng. AUTh, MSc
#
# This program is free software: you can redistribute it and/or modify
# it under the terms of the GNU General Public License as published by
# the Free Software Foundation, either version 3 of the License, or
# (at your option) any later version.
#
# This program is distributed in the hope that it will be useful,
# but WITHOUT ANY WARRANTY; without even the implied warranty of
# MERCHANTABILITY or FITNESS FOR A PARTICULAR PURPOSE.  See the
# GNU General Public License for more details.
#
# You should have received a copy of the GNU General Public License
# along with this program.  If not, see <http://www.gnu.org/licenses/>.

# --------------------------------------------------------------------------------------------------------------
# U N I T S
# --------------------------------------------------------------------------------------------------------------

# Length : m
# Force  : kN
# Moment : kNm
# Stress : kPa
# Mass   : ton

# --------------------------------------------------------------------------------------------------------------
# M A T E R I A L S / S E C T I O N S ( E L E M E N T S )
# --------------------------------------------------------------------------------------------------------------

# Truss (368)
# Soil (605)

# --------------------------------------------------------------------------------------------------------------
#
# M O D E L  D O M A I N  3DOF  (3)
#
# --------------------------------------------------------------------------------------------------------------

model BasicBuilder -ndm 3 -ndf 3

# --------------------------------------------------------------------------------------------------------------
# N O D E S
# --------------------------------------------------------------------------------------------------------------

# node $NodeTag $XCoord $Ycoord $Zcoord

node      1         27.5            1           32
node      2      25.5769      1.07692           32
node      3      25.5769     0.923077           32
node      4      25.4808     0.923077      32.2308
node      5      23.6538     0.846154           32
node      6      23.6538      1.15385           32
node      7      23.4615     0.846154      32.4615
node      8      21.7308     0.769231           32
node      9      21.7308      1.23077           32
node     10      21.4423     0.769231      32.6923
node     11      19.8077     0.692308           32
node     12      19.8077      1.30769           32
node     13      19.4231     0.692308      32.9231
node     14      17.8846     0.615385           32
node     15      17.8846      1.38462           32
node     16      17.4038     0.615385      33.1538
node     17      15.9615     0.538462           32
node     18      15.9615      1.46154           32
node     19      15.3846     0.538462      33.3846
node     20      14.0385      1.53846           32
# ... 960 like lines cut

# --------------------------------------------------------------------------------------------------------------
# R E S T R A I N T S
# --------------------------------------------------------------------------------------------------------------

# fix $NodeTag x-transl y-transl z-transl

fix     93   1   0   0
fix     94   1   0   0
fix    103   1   0   0
fix    104   1   0   0
fix    117   1   0   0
fix    118   1   0   0
fix    135   1   0   0
fix    138   1   0   0
fix    147   1   0   0
fix    148   1   0   0
fix    153   1   0   0
fix    154   1   0   0
fix    169   1   0   0
fix    170   1   0   0
fix    181   1   0   0
fix    182   1   0   0
fix    203   1   0   0
fix    204   1   0   0
fix    217   1   0   0
fix    218   1   0   0
# ... 344 like lines cut

# --------------------------------------------------------------------------------------------------------------
# T R U S S   E L E M E N T S  (3 DOF)
# --------------------------------------------------------------------------------------------------------------

# Uniaxial Materials definition used by Truss Elements
# (only if they have not been already defined on this model domain)

uniaxialMaterial Elastic 359 2e+08

# Truss Definition : element truss $eleTag $inode $jnode $A $matTag -rho $rho -cMass $cFlag -doRayleigh $rFlag

element truss    606    176   175        0.001 359   -rho        0 -cMass 0 -doRayleigh 0 ; # Steel
element truss    607    193   194        0.001 359   -rho        0 -cMass 0 -doRayleigh 0 ; # Steel
element truss    608    194   180        0.001 359   -rho        0 -cMass 0 -doRayleigh 0 ; # Steel
element truss    609    180   179        0.001 359   -rho        0 -cMass 0 -doRayleigh 0 ; # Steel
element truss    610    179   155        0.001 359   -rho        0 -cMass 0 -doRayleigh 0 ; # Steel
element truss    611    155   156        0.001 359   -rho        0 -cMass 0 -doRayleigh 0 ; # Steel
element truss    612    156   180        0.001 359   -rho        0 -cMass 0 -doRayleigh 0 ; # Steel
element truss    613    179   193        0.001 359   -rho        0 -cMass 0 -doRayleigh 0 ; # Steel
element truss    614    155   175        0.001 359   -rho        0 -cMass 0 -doRayleigh 0 ; # Steel
element truss    615    176   156        0.001 359   -rho        0 -cMass 0 -doRayleigh 0 ; # Steel
element truss    616    194   156        0.001 359   -rho        0 -cMass 0 -doRayleigh 0 ; # Steel
element truss    617    156   175        0.001 359   -rho        0 -cMass 0 -doRayleigh 0 ; # Steel
element truss    618    175   179        0.001 359   -rho        0 -cMass 0 -doRayleigh 0 ; # Steel
element truss    619    179   194        0.001 359   -rho        0 -cMass 0 -doRayleigh 0 ; # Steel
element truss    620    180   163        0.001 359   -rho        0 -cMass 0 -doRayleigh 0 ; # Steel
element truss    621    163   164        0.001 359   -rho        0 -cMass 0 -doRayleigh 0 ; # Steel
element truss    622    164   137        0.001 359   -rho        0 -cMass 0 -doRayleigh 0 ; # Steel
element truss    623    137   136        0.001 359   -rho        0 -cMass 0 -doRayleigh 0 ; # Steel
element truss    624    136   163        0.001 359   -rho        0 -cMass 0 -doRayleigh 0 ; # Steel
element truss    625    164   179        0.001 359   -rho        0 -cMass 0 -doRayleigh 0 ; # Steel
# ... 348 like lines cut

# --------------------------------------------------------------------------------------------------------------
# S T A N D A R D   B R I C K   E L E M E N T S
# --------------------------------------------------------------------------------------------------------------

# nDMaterial Definition used by stdBrick Elements
# (if they have not already been defined on this model domain)

nDMaterial ElasticIsotropic 360 170000 0.25            0

# stdBrick element definition: element stdBrick $eleTag $node1 $node2 $node3 $node4 $node5 $node6 $node7 $node8 $matTag <$b1 $b2 $b3>

element stdBrick      1    886    856    798    842    815    761    687    747    360        0        0        0 ; # Soil Material
element stdBrick      2    815    761    687    747    725    661    567    645    360        0        0        0 ; # Soil Material
element stdBrick      3    725    661    567    645    615    551    471    539    360        0        0        0 ; # Soil Material
element stdBrick      4    615    551    471    539    535    469    383    449    360        0        0        0 ; # Soil Material
element stdBrick      5    535    469    383    449    467    399    309    377    360        0        0        0 ; # Soil Material
element stdBrick      6    467    399    309    377    405    343    269    317    360        0        0        0 ; # Soil Material
element stdBrick      7    405    343    269    317    366    296    219    277    360        0        0        0 ; # Soil Material
element stdBrick      8    366    296    219    277    322    272    197    253    360        0        0        0 ; # Soil Material
element stdBrick      9    322    272    197    253    304    248    185    235    360        0        0        0 ; # Soil Material
element stdBrick     10    304    248    185    235    298    242    173    225    360        0        0        0 ; # Soil Material
element stdBrick     11    298    242    173    225    300    246    181    230    360        0        0        0 ; # Soil Material
element stdBrick     12    924    900    856    886    872    833    761    815    360        0        0        0 ; # Soil Material
element stdBrick     13    872    833    761    815    808    755    661    725    360        0        0        0 ; # Soil Material
element stdBrick     14    808    755    661    725    728    665    551    615    360        0        0        0 ; # Soil Material
element stdBrick     15    728    665    551    615    642    573    469    535    360        0        0        0 ; # Soil Material
element stdBrick     16    642    573    469    535    564    493    399    467    360        0        0        0 ; # Soil Material
element stdBrick     17    564    493    399    467    500    430    343    405    360        0        0        0 ; # Soil Material
element stdBrick     18    500    430    343    405    458    392    296    366    360        0        0        0 ; # Soil Material
element stdBrick     19    458    392    296    366    418    364    272    322    360        0        0        0 ; # Soil Material
element stdBrick     20    418    364    272    322    404    340    248    304    360        0        0        0 ; # Soil Material
# ... 585 like lines cut

# --------------------------------------------------------------------------------------------------------------
#
# D O M A I N  C O M M O N S
#
# --------------------------------------------------------------------------------------------------------------

# --------------------------------------------------------------------------------------------------------------
# R E C O R D E R S
# --------------------------------------------------------------------------------------------------------------

recorder Node -file Node_displacements.out -time -nodeRange 1 980 -dof 1 2 3 disp
recorder Node -file Node_rotations.out -time -nodeRange 1 980 -dof 4 5 6 disp
recorder Node -file Node_forceReactions.out -time -nodeRange 1 980 -dof 1 2 3 reaction
recorder Node -file Node_momentReactions.out -time -nodeRange 1 980 -dof 4 5 6 reaction
recorder Element -file stdBrick_force.out -time -eleRange 1 605 forces
recorder Element -file stdBrick_stress.out -time -eleRange 1 605 stresses
recorder Element -file stdBrick_strain.out -time -eleRange 1 605 strains
recorder Element -file Truss_axialForce.out -time -ele 606 607 608 609 610 611 612 613 614 615 616 617 618 619 620 621 622 623 624 625 626 627 628 629 630 631 632 633 634 635 636 637 638 639 640 641 642 643 644 645 646 647 648 649 650 651 652 653 654 655 656 657 658 659 660 661 662 663 664 665 666 667 668 669 670 671 672 673 674 675 676 677 678 679 680 681 682 683 684 685 686 687 688 689 690 691 6
recorder Element -file Truss_deformations.out -time -ele 606 607 608 609 610 611 612 613 614 615 616 617 618 619 620 621 622 623 624 625 626 627 628 629 630 631 632 633 634 635 636 637 638 639 640 641 642 643 644 645 646 647 648 649 650 651 652 653 654 655 656 657 658 659 660 661 662 663 664 665 666 667 668 669 670 671 672 673 674 675 676 677 678 679 680 681 682 683 684 685 686 687 688 689 690 691

logFile "Tutorial - Truss Crane on Soil.log"

puts " __   __       __          __                   _       "
puts "/ _ .|  \\ _|_ /  \\ _  _ _ (_  _ _ _  | _ |_ _ _(_ _  _ _"
puts "\\__)||__/  |  \\__/|_)(-| )__)(-(-_)  || )|_(-| | (_|(_(-"
puts "                  |                                     "
puts "                             v3.0.0 with OpenSees v[version]\n"
puts "Analysis summary\n"
puts "Interval 1 : Static - [expr int(1+1)] steps"
puts "\n----------------\n"
set time_start [clock seconds]
puts "Starting analysis...\n"

# --------------------------------------------------------------------------------------------------------------
#
# I N T E R V A L   1
#
# --------------------------------------------------------------------------------------------------------------

puts "Running interval 1"

# Loads - Plain Pattern

pattern Plain 100 Linear {
    load      1        0        0      -10
    load     95        0        0      -20
    load     96        0        0      -20
}

# recording the initial status

record

# Analysis options

wipeAnalysis
system BandGeneral
numberer RCM
constraints Transformation
integrator LoadControl 1
algorithm Linear
analysis Static
set committedSteps 1
for {set i 1} { $i <= 1 } {incr i 1} {
    set AnalOk [analyze 1]
    if {$AnalOk !=0} {
        break
    } else {
        set committedSteps [expr $committedSteps+1]
    }
}
if {$AnalOk == 0} {
    puts "\nAnalysis completed SUCCESSFULLY"
    puts "Committed steps : $committedSteps\n"
} else {
    puts "\nAnalysis FAILED"
    puts "Committed steps : $committedSteps\n"
}

# --------------------------------------------------------------------------------------------------------------

set hour 0.0
set minute 0.0
set second 0.0
set time_end [clock seconds]
set analysisTime [expr $time_end-$time_start]

puts "Analysis finished.\n"

if {$analysisTime<60} {
    if {$analysisTime==0} {
        puts "Analysis time : less than one second"
    } elseif {$analysisTime==1} {
        puts "Analysis time : 1 second"
    } else {
        puts "Analysis time : $analysisTime seconds"
    }

}  elseif {$analysisTime<3600} {
    set minutes [expr $analysisTime/60]
    set seconds [expr $analysisTime%60]

    if {$minutes==1} {
        puts -nonewline "Analysis time : 1 minute"
    } else {
        puts -nonewline "Analysis time : $minutes minutes"
    }

    if {$seconds==0} {
        puts ""
    } elseif {$seconds==1} {
        puts " and 1 second"
    } else {
        puts " and $seconds seconds"
    }

} else  {
    set hours [expr $analysisTime/3600]
    set minutes [expr ($analysisTime%3600)/60]
    set seconds [expr ($analysisTime%3600)%60]

    if {$hours==1} {
        puts -nonewline "Analysis time : 1 hour"
    } else {
        puts -nonewline "Analysis time : $hours hours"
    }

    if {$minutes==0} {
    } elseif {$minute==1} {
        puts -nonewline ", 1 minute"
    } else {
        puts -nonewline ", $minutes minutes"
    }

    if {$seconds==0} {
        puts ""
    } elseif {$second==1} {
        puts " and 1 second"
    } else {
        puts " and $seconds seconds"
    }
}

# --------------------------------------------------------------------------------------------------------------
#
# M E T A D A T A
#
# --------------------------------------------------------------------------------------------------------------

# Number of nodes
# 980

# Elements 1D
# 368

# Elements 2D
# 0

# Elements 3D
# 605

# Truss
# 368
# 606 607 608 609 610 611 612 613 614 615 616 617 618 619 620 621 622 623 624 625 626 627 628 629 630 631 632 633 634 635 636 637 638 639 640 641 642 643 644 645 646 647 648 649 650 651 652 653 654 655 656 657 658 659 660 661 662 663 664 665 666 667 668 669 670 671 672 673 674 675 676 677 678 679 680 681 682 683 684 685 686 687 688 689 690 691 692 693 694 695 696 697 698 699 700 701 702 703 704 70

# stdBrick
# 605
# 1 2 3 4 5 6 7 8 9 10 11 12 13 14 15 16 17 18 19 20 21 22 23 24 25 26 27 28 29 30 31 32 33 34 35 36 37 38 39 40 41 42 43 44 45 46 47 48 49 50 51 52 53 54 55 56 57 58 59 60 61 62 63 64 65 66 67 68 69 70 71 72 73 74 75 76 77 78 79 80 81 82 83 84 85 86 87 88 89 90 91 92 93 94 95 96 97 98 99 100 101 102 103 104 105 106 107 108 109 110 111 112 113 114 115 116 117 118 119 120 121 122 123 124 125 126 12
